@<TRIPOS>MOLECULE
CHEMBL538904
   42    44     0     0     0
SMALL
USER_CHARGES

@<TRIPOS>ATOM
      1 C1         -0.0164    1.3606    0.0095 C.2       1 <0>         0.2511
      2 N1          1.2014    1.8181    0.0004 N.2       1 <0>        -0.4235
      3 C2          2.0711    0.7788   -0.0135 C.2       1 <0>        -0.1387
      4 C3          3.4818    0.6749   -0.0276 C.2       1 <0>         0.5959
      5 O1          4.1818    1.6731   -0.0285 O.2       1 <0>        -0.5172
      6 N2          4.0343   -0.5584   -0.0395 N.am      1 <0>        -0.6577
      7 H1          4.9994   -0.6547   -0.0489 H         1 <0>         0.4099
      8 C4          3.2421   -1.6676   -0.0379 C.2       1 <0>         0.6289
      9 N3          1.9305   -1.5844   -0.0253 N.2       1 <0>        -0.5620
     10 C5          1.3128   -0.3975   -0.0126 C.2       1 <0>         0.2776
     11 N4          0.0021   -0.0041    0.0020 N.pl3     1 <0>        -0.4331
     12 C6         -1.1673   -0.8865    0.0089 C.3       1 <0>         0.1646
     13 C7         -2.0876   -0.5706   -1.1930 C.3       1 <0>        -0.1235
     14 C8         -3.0927    0.4177   -0.5572 C.3       1 <0>         0.0566
     15 C9         -3.0710    0.0916    0.9181 C.2       1 <0>        -0.1106
     16 C10        -2.0210   -0.6196    1.2268 C.2       1 <0>        -0.2144
     17 O2         -4.4011    0.2110   -1.0935 O.3       1 <0>        -0.3455
     18 C11        -5.2069    1.3905   -1.1309 C.3       1 <0>        -0.5661
     19 P1         -4.6456    2.4670   -2.4908 P.3       1 <0>         2.3183
     20 O3         -3.1690    2.8592   -2.2613 O.2       1 <0>        -1.0809
     21 O4         -4.7753    1.7118   -3.8325 O.3       1 <0>        -1.0912
     22 O5         -5.5536    3.7959   -2.5330 O.3       1 <0>        -1.1028
     23 P2         -5.5752    5.1064   -3.4680 P.3       1 <0>         2.3424
     24 O6         -4.1256    5.5482   -3.7690 O.2       1 <0>        -1.1157
     25 O7         -6.3004    4.7818   -4.7930 O.3       1 <0>        -1.1379
     26 O8         -6.3516    6.2948   -2.7084 O.3       1 <0>        -1.1056
     27 P3         -6.4577    7.8853   -2.9347 P.3       1 <0>         2.2202
     28 O9         -5.0535    8.4501   -3.3393 O.2       1 <0>        -1.1958
     29 O10        -7.4889    8.1827   -4.0761 O.3       1 <0>        -1.2118
     30 O11        -6.9341    8.5708   -1.6090 O.3       1 <0>        -1.2136
     31 N5          3.8310   -2.9070   -0.0502 N.pl3     1 <0>        -0.8307
     32 H2         -0.9084    1.9694    0.0254 H         1 <0>         0.2311
     33 H3         -0.8545   -1.9304   -0.0143 H         1 <0>         0.1109
     34 H4         -1.5288   -0.0956   -1.9994 H         1 <0>         0.1033
     35 H5         -2.5928   -1.4696   -1.5459 H         1 <0>         0.0985
     36 H6         -2.7713    1.4458   -0.7236 H         1 <0>         0.1361
     37 H7         -3.8251    0.4060    1.6244 H         1 <0>         0.1288
     38 H8         -1.7925   -0.9715    2.2220 H         1 <0>         0.1271
     39 H9         -6.2487    1.1138   -1.2929 H         1 <0>         0.0925
     40 H10        -5.1154    1.9232   -0.1844 H         1 <0>         0.0517
     41 H11         4.7979   -2.9845   -0.0598 H         1 <0>         0.4092
     42 H12         3.2805   -3.7056   -0.0492 H         1 <0>         0.4236
@<TRIPOS>BOND
     1    1   11 1
     2    1    2 2
     3    1   32 1
     4    2    3 1
     5    3   10 2
     6    3    4 1
     7    4    5 2
     8    4    6 am
     9    6    7 1
    10    6    8 1
    11    8    9 2
    12    8   31 1
    13    9   10 1
    14   10   11 1
    15   11   12 1
    16   12   16 1
    17   12   13 1
    18   12   33 1
    19   13   14 1
    20   13   34 1
    21   13   35 1
    22   14   15 1
    23   14   17 1
    24   14   36 1
    25   15   16 2
    26   15   37 1
    27   16   38 1
    28   17   18 1
    29   18   19 1
    30   18   39 1
    31   18   40 1
    32   19   20 2
    33   19   21 1
    34   19   22 1
    35   22   23 1
    36   23   24 2
    37   23   25 1
    38   23   26 1
    39   26   27 1
    40   27   28 2
    41   27   29 1
    42   27   30 1
    43   31   41 1
    44   31   42 1
@<TRIPOS>MOLECULE
CHEMBL538904__1
   43    45     0     0     0
SMALL
USER_CHARGES

@<TRIPOS>ATOM
      1 C1         -0.0164    1.3606    0.0095 C.2       1 <0>         0.2457
      2 N1          1.2014    1.8181    0.0004 N.2       1 <0>        -0.4237
      3 C2          2.0711    0.7788   -0.0135 C.2       1 <0>        -0.1406
      4 C3          3.4818    0.6749   -0.0276 C.2       1 <0>         0.5961
      5 O1          4.1818    1.6731   -0.0285 O.2       1 <0>        -0.5166
      6 N2          4.0343   -0.5584   -0.0395 N.am      1 <0>        -0.6577
      7 H1          4.9994   -0.6547   -0.0489 H         1 <0>         0.4115
      8 C4          3.2421   -1.6676   -0.0379 C.2       1 <0>         0.6338
      9 N3          1.9305   -1.5844   -0.0253 N.2       1 <0>        -0.5654
     10 C5          1.3128   -0.3975   -0.0126 C.2       1 <0>         0.2833
     11 N4          0.0021   -0.0041    0.0020 N.pl3     1 <0>        -0.4346
     12 C6         -1.1673   -0.8865    0.0089 C.3       1 <0>         0.1634
     13 C7         -2.0876   -0.5706   -1.1930 C.3       1 <0>        -0.1239
     14 C8         -3.0927    0.4177   -0.5572 C.3       1 <0>         0.0592
     15 C9         -3.0710    0.0916    0.9181 C.2       1 <0>        -0.1180
     16 C10        -2.0210   -0.6196    1.2268 C.2       1 <0>        -0.2065
     17 O2         -4.4011    0.2110   -1.0935 O.3       1 <0>        -0.3436
     18 C11        -5.2069    1.3905   -1.1309 C.3       1 <0>        -0.5635
     19 P1         -4.6456    2.4670   -2.4908 P.3       1 <0>         2.3132
     20 O3         -3.1690    2.8592   -2.2613 O.2       1 <0>        -1.0757
     21 O4         -4.7753    1.7118   -3.8325 O.3       1 <0>        -1.0838
     22 O5         -5.5536    3.7959   -2.5330 O.3       1 <0>        -1.1023
     23 P2         -5.5752    5.1064   -3.4680 P.3       1 <0>         2.3429
     24 O6         -4.1256    5.5482   -3.7690 O.2       1 <0>        -1.0963
     25 O7         -6.3004    4.7818   -4.7930 O.3       1 <0>        -1.1143
     26 O8         -6.3516    6.2948   -2.7084 O.3       1 <0>        -1.0979
     27 P3         -6.4577    7.8853   -2.9347 P.3       1 <0>         2.2679
     28 O9         -5.0730    8.4423   -3.3337 O.2       1 <0>        -1.1054
     29 O10        -7.4746    8.1786   -4.0604 O.3       1 <0>        -1.1200
     30 O11        -6.9473    8.5897   -1.5723 O.3       1 <0>        -0.9099
     31 N5          3.8310   -2.9070   -0.0502 N.pl3     1 <0>        -0.8288
     32 H2         -0.9084    1.9694    0.0254 H         1 <0>         0.2285
     33 H3         -0.8545   -1.9304   -0.0143 H         1 <0>         0.1128
     34 H4         -1.5288   -0.0956   -1.9994 H         1 <0>         0.1035
     35 H5         -2.5928   -1.4696   -1.5459 H         1 <0>         0.0996
     36 H6         -2.7713    1.4458   -0.7236 H         1 <0>         0.1335
     37 H7         -3.8251    0.4060    1.6244 H         1 <0>         0.1281
     38 H8         -1.7925   -0.9715    2.2220 H         1 <0>         0.1286
     39 H9         -6.2487    1.1138   -1.2929 H         1 <0>         0.0920
     40 H10        -5.1154    1.9232   -0.1844 H         1 <0>         0.0497
     41 H11        -7.0337    9.5508   -1.6355 H         1 <0>         0.3998
     42 H12         4.7979   -2.9845   -0.0598 H         1 <0>         0.4106
     43 H13         3.2805   -3.7056   -0.0492 H         1 <0>         0.4246
@<TRIPOS>BOND
     1    1   11 1
     2    1    2 2
     3    1   32 1
     4    2    3 1
     5    3   10 2
     6    3    4 1
     7    4    5 2
     8    4    6 am
     9    6    7 1
    10    6    8 1
    11    8    9 2
    12    8   31 1
    13    9   10 1
    14   10   11 1
    15   11   12 1
    16   12   16 1
    17   12   13 1
    18   12   33 1
    19   13   14 1
    20   13   34 1
    21   13   35 1
    22   14   15 1
    23   14   17 1
    24   14   36 1
    25   15   16 2
    26   15   37 1
    27   16   38 1
    28   17   18 1
    29   18   19 1
    30   18   39 1
    31   18   40 1
    32   19   20 2
    33   19   21 1
    34   19   22 1
    35   22   23 1
    36   23   24 2
    37   23   25 1
    38   23   26 1
    39   26   27 1
    40   27   28 2
    41   27   29 1
    42   27   30 1
    43   30   41 1
    44   31   42 1
    45   31   43 1
@<TRIPOS>MOLECULE
CHEMBL538904__2
   42    44     0     0     0
SMALL
USER_CHARGES

@<TRIPOS>ATOM
      1 C1         -0.0164    1.3606    0.0095 C.2       1 <0>         0.2511
      2 N1          1.2014    1.8181    0.0004 N.2       1 <0>        -0.4235
      3 C2          2.0711    0.7788   -0.0135 C.2       1 <0>        -0.1387
      4 C3          3.4818    0.6749   -0.0276 C.2       1 <0>         0.5959
      5 O1          4.1818    1.6731   -0.0285 O.2       1 <0>        -0.5172
      6 N2          4.0343   -0.5584   -0.0395 N.am      1 <0>        -0.6577
      7 H1          4.9994   -0.6547   -0.0489 H         1 <0>         0.4099
      8 C4          3.2421   -1.6676   -0.0379 C.2       1 <0>         0.6289
      9 N3          1.9305   -1.5844   -0.0253 N.2       1 <0>        -0.5620
     10 C5          1.3128   -0.3975   -0.0126 C.2       1 <0>         0.2776
     11 N4          0.0021   -0.0041    0.0020 N.pl3     1 <0>        -0.4331
     12 C6         -1.1673   -0.8865    0.0089 C.3       1 <0>         0.1646
     13 C7         -2.0876   -0.5706   -1.1930 C.3       1 <0>        -0.1235
     14 C8         -3.0927    0.4177   -0.5572 C.3       1 <0>         0.0566
     15 C9         -3.0710    0.0916    0.9181 C.2       1 <0>        -0.1106
     16 C10        -2.0210   -0.6196    1.2268 C.2       1 <0>        -0.2144
     17 O2         -4.4011    0.2110   -1.0935 O.3       1 <0>        -0.3455
     18 C11        -5.2069    1.3905   -1.1309 C.3       1 <0>        -0.5661
     19 P1         -4.6456    2.4670   -2.4908 P.3       1 <0>         2.3183
     20 O3         -3.1690    2.8592   -2.2613 O.2       1 <0>        -1.0809
     21 O4         -4.7753    1.7118   -3.8325 O.3       1 <0>        -1.0912
     22 O5         -5.5536    3.7959   -2.5330 O.3       1 <0>        -1.1028
     23 P2         -5.5752    5.1064   -3.4680 P.3       1 <0>         2.3424
     24 O6         -4.1256    5.5482   -3.7690 O.2       1 <0>        -1.1157
     25 O7         -6.3004    4.7818   -4.7930 O.3       1 <0>        -1.1379
     26 O8         -6.3516    6.2948   -2.7084 O.3       1 <0>        -1.1056
     27 P3         -6.4577    7.8853   -2.9347 P.3       1 <0>         2.2202
     28 O9         -5.0535    8.4501   -3.3393 O.2       1 <0>        -1.1958
     29 O10        -7.4889    8.1827   -4.0761 O.3       1 <0>        -1.2118
     30 O11        -6.9341    8.5708   -1.6090 O.3       1 <0>        -1.2136
     31 N5          3.8310   -2.9070   -0.0502 N.pl3     1 <0>        -0.8307
     32 H2         -0.9084    1.9694    0.0254 H         1 <0>         0.2311
     33 H3         -0.8545   -1.9304   -0.0143 H         1 <0>         0.1109
     34 H4         -1.5288   -0.0956   -1.9994 H         1 <0>         0.1033
     35 H5         -2.5928   -1.4696   -1.5459 H         1 <0>         0.0985
     36 H6         -2.7713    1.4458   -0.7236 H         1 <0>         0.1361
     37 H7         -3.8251    0.4060    1.6244 H         1 <0>         0.1288
     38 H8         -1.7925   -0.9715    2.2220 H         1 <0>         0.1271
     39 H9         -6.2487    1.1138   -1.2929 H         1 <0>         0.0925
     40 H10        -5.1154    1.9232   -0.1844 H         1 <0>         0.0517
     41 H11         4.7979   -2.9845   -0.0598 H         1 <0>         0.4092
     42 H12         3.2805   -3.7056   -0.0492 H         1 <0>         0.4236
@<TRIPOS>BOND
     1    1   11 1
     2    1    2 2
     3    1   32 1
     4    2    3 1
     5    3   10 2
     6    3    4 1
     7    4    5 2
     8    4    6 am
     9    6    7 1
    10    6    8 1
    11    8    9 2
    12    8   31 1
    13    9   10 1
    14   10   11 1
    15   11   12 1
    16   12   16 1
    17   12   13 1
    18   12   33 1
    19   13   14 1
    20   13   34 1
    21   13   35 1
    22   14   15 1
    23   14   17 1
    24   14   36 1
    25   15   16 2
    26   15   37 1
    27   16   38 1
    28   17   18 1
    29   18   19 1
    30   18   39 1
    31   18   40 1
    32   19   20 2
    33   19   21 1
    34   19   22 1
    35   22   23 1
    36   23   24 2
    37   23   25 1
    38   23   26 1
    39   26   27 1
    40   27   28 2
    41   27   29 1
    42   27   30 1
    43   31   41 1
    44   31   42 1
@<TRIPOS>MOLECULE
CHEMBL538904__3
   43    45     0     0     0
SMALL
USER_CHARGES

@<TRIPOS>ATOM
      1 C1         -0.0164    1.3606    0.0095 C.2       1 <0>         0.2457
      2 N1          1.2014    1.8181    0.0004 N.2       1 <0>        -0.4237
      3 C2          2.0711    0.7788   -0.0135 C.2       1 <0>        -0.1406
      4 C3          3.4818    0.6749   -0.0276 C.2       1 <0>         0.5961
      5 O1          4.1818    1.6731   -0.0285 O.2       1 <0>        -0.5166
      6 N2          4.0343   -0.5584   -0.0395 N.am      1 <0>        -0.6577
      7 H1          4.9994   -0.6547   -0.0489 H         1 <0>         0.4115
      8 C4          3.2421   -1.6676   -0.0379 C.2       1 <0>         0.6338
      9 N3          1.9305   -1.5844   -0.0253 N.2       1 <0>        -0.5654
     10 C5          1.3128   -0.3975   -0.0126 C.2       1 <0>         0.2833
     11 N4          0.0021   -0.0041    0.0020 N.pl3     1 <0>        -0.4346
     12 C6         -1.1673   -0.8865    0.0089 C.3       1 <0>         0.1634
     13 C7         -2.0876   -0.5706   -1.1930 C.3       1 <0>        -0.1239
     14 C8         -3.0927    0.4177   -0.5572 C.3       1 <0>         0.0592
     15 C9         -3.0710    0.0916    0.9181 C.2       1 <0>        -0.1180
     16 C10        -2.0210   -0.6196    1.2268 C.2       1 <0>        -0.2065
     17 O2         -4.4011    0.2110   -1.0935 O.3       1 <0>        -0.3436
     18 C11        -5.2069    1.3905   -1.1309 C.3       1 <0>        -0.5635
     19 P1         -4.6456    2.4670   -2.4908 P.3       1 <0>         2.3132
     20 O3         -3.1690    2.8592   -2.2613 O.2       1 <0>        -1.0757
     21 O4         -4.7753    1.7118   -3.8325 O.3       1 <0>        -1.0838
     22 O5         -5.5536    3.7959   -2.5330 O.3       1 <0>        -1.1023
     23 P2         -5.5752    5.1064   -3.4680 P.3       1 <0>         2.3429
     24 O6         -4.1256    5.5482   -3.7690 O.2       1 <0>        -1.0963
     25 O7         -6.3004    4.7818   -4.7930 O.3       1 <0>        -1.1143
     26 O8         -6.3516    6.2948   -2.7084 O.3       1 <0>        -1.0979
     27 P3         -6.4577    7.8853   -2.9347 P.3       1 <0>         2.2679
     28 O9         -5.0730    8.4423   -3.3337 O.2       1 <0>        -1.1054
     29 O10        -7.4746    8.1786   -4.0604 O.3       1 <0>        -1.1200
     30 O11        -6.9473    8.5897   -1.5723 O.3       1 <0>        -0.9099
     31 N5          3.8310   -2.9070   -0.0502 N.pl3     1 <0>        -0.8288
     32 H2         -0.9084    1.9694    0.0254 H         1 <0>         0.2285
     33 H3         -0.8545   -1.9304   -0.0143 H         1 <0>         0.1128
     34 H4         -1.5288   -0.0956   -1.9994 H         1 <0>         0.1035
     35 H5         -2.5928   -1.4696   -1.5459 H         1 <0>         0.0996
     36 H6         -2.7713    1.4458   -0.7236 H         1 <0>         0.1335
     37 H7         -3.8251    0.4060    1.6244 H         1 <0>         0.1281
     38 H8         -1.7925   -0.9715    2.2220 H         1 <0>         0.1286
     39 H9         -6.2487    1.1138   -1.2929 H         1 <0>         0.0920
     40 H10        -5.1154    1.9232   -0.1844 H         1 <0>         0.0497
     41 H11        -7.0337    9.5508   -1.6355 H         1 <0>         0.3998
     42 H12         4.7979   -2.9845   -0.0598 H         1 <0>         0.4106
     43 H13         3.2805   -3.7056   -0.0492 H         1 <0>         0.4246
@<TRIPOS>BOND
     1    1   11 1
     2    1    2 2
     3    1   32 1
     4    2    3 1
     5    3   10 2
     6    3    4 1
     7    4    5 2
     8    4    6 am
     9    6    7 1
    10    6    8 1
    11    8    9 2
    12    8   31 1
    13    9   10 1
    14   10   11 1
    15   11   12 1
    16   12   16 1
    17   12   13 1
    18   12   33 1
    19   13   14 1
    20   13   34 1
    21   13   35 1
    22   14   15 1
    23   14   17 1
    24   14   36 1
    25   15   16 2
    26   15   37 1
    27   16   38 1
    28   17   18 1
    29   18   19 1
    30   18   39 1
    31   18   40 1
    32   19   20 2
    33   19   21 1
    34   19   22 1
    35   22   23 1
    36   23   24 2
    37   23   25 1
    38   23   26 1
    39   26   27 1
    40   27   28 2
    41   27   29 1
    42   27   30 1
    43   30   41 1
    44   31   42 1
    45   31   43 1
@<TRIPOS>MOLECULE
CHEMBL538904__4
   42    44     0     0     0
SMALL
USER_CHARGES

@<TRIPOS>ATOM
      1 C1         -0.0164    1.3606    0.0095 C.2       1 <0>         0.2511
      2 N1          1.2014    1.8181    0.0004 N.2       1 <0>        -0.4235
      3 C2          2.0711    0.7788   -0.0135 C.2       1 <0>        -0.1387
      4 C3          3.4818    0.6749   -0.0276 C.2       1 <0>         0.5959
      5 O1          4.1818    1.6731   -0.0285 O.2       1 <0>        -0.5172
      6 N2          4.0343   -0.5584   -0.0395 N.am      1 <0>        -0.6577
      7 H1          4.9994   -0.6547   -0.0489 H         1 <0>         0.4099
      8 C4          3.2421   -1.6676   -0.0379 C.2       1 <0>         0.6289
      9 N3          1.9305   -1.5844   -0.0253 N.2       1 <0>        -0.5620
     10 C5          1.3128   -0.3975   -0.0126 C.2       1 <0>         0.2776
     11 N4          0.0021   -0.0041    0.0020 N.pl3     1 <0>        -0.4331
     12 C6         -1.1673   -0.8865    0.0089 C.3       1 <0>         0.1646
     13 C7         -2.0876   -0.5706   -1.1930 C.3       1 <0>        -0.1235
     14 C8         -3.0927    0.4177   -0.5572 C.3       1 <0>         0.0566
     15 C9         -3.0710    0.0916    0.9181 C.2       1 <0>        -0.1106
     16 C10        -2.0210   -0.6196    1.2268 C.2       1 <0>        -0.2144
     17 O2         -4.4011    0.2110   -1.0935 O.3       1 <0>        -0.3455
     18 C11        -5.2069    1.3905   -1.1309 C.3       1 <0>        -0.5661
     19 P1         -4.6456    2.4670   -2.4908 P.3       1 <0>         2.3183
     20 O3         -3.1690    2.8592   -2.2613 O.2       1 <0>        -1.0809
     21 O4         -4.7753    1.7118   -3.8325 O.3       1 <0>        -1.0912
     22 O5         -5.5536    3.7959   -2.5330 O.3       1 <0>        -1.1028
     23 P2         -5.5752    5.1064   -3.4680 P.3       1 <0>         2.3424
     24 O6         -4.1256    5.5482   -3.7690 O.2       1 <0>        -1.1157
     25 O7         -6.3004    4.7818   -4.7930 O.3       1 <0>        -1.1379
     26 O8         -6.3516    6.2948   -2.7084 O.3       1 <0>        -1.1056
     27 P3         -6.4577    7.8853   -2.9347 P.3       1 <0>         2.2202
     28 O9         -5.0535    8.4501   -3.3393 O.2       1 <0>        -1.1958
     29 O10        -7.4889    8.1827   -4.0761 O.3       1 <0>        -1.2118
     30 O11        -6.9341    8.5708   -1.6090 O.3       1 <0>        -1.2136
     31 N5          3.8310   -2.9070   -0.0502 N.pl3     1 <0>        -0.8307
     32 H2         -0.9084    1.9694    0.0254 H         1 <0>         0.2311
     33 H3         -0.8545   -1.9304   -0.0143 H         1 <0>         0.1109
     34 H4         -1.5288   -0.0956   -1.9994 H         1 <0>         0.1033
     35 H5         -2.5928   -1.4696   -1.5459 H         1 <0>         0.0985
     36 H6         -2.7713    1.4458   -0.7236 H         1 <0>         0.1361
     37 H7         -3.8251    0.4060    1.6244 H         1 <0>         0.1288
     38 H8         -1.7925   -0.9715    2.2220 H         1 <0>         0.1271
     39 H9         -6.2487    1.1138   -1.2929 H         1 <0>         0.0925
     40 H10        -5.1154    1.9232   -0.1844 H         1 <0>         0.0517
     41 H11         4.7979   -2.9845   -0.0598 H         1 <0>         0.4092
     42 H12         3.2805   -3.7056   -0.0492 H         1 <0>         0.4236
@<TRIPOS>BOND
     1    1   11 1
     2    1    2 2
     3    1   32 1
     4    2    3 1
     5    3   10 2
     6    3    4 1
     7    4    5 2
     8    4    6 am
     9    6    7 1
    10    6    8 1
    11    8    9 2
    12    8   31 1
    13    9   10 1
    14   10   11 1
    15   11   12 1
    16   12   16 1
    17   12   13 1
    18   12   33 1
    19   13   14 1
    20   13   34 1
    21   13   35 1
    22   14   15 1
    23   14   17 1
    24   14   36 1
    25   15   16 2
    26   15   37 1
    27   16   38 1
    28   17   18 1
    29   18   19 1
    30   18   39 1
    31   18   40 1
    32   19   20 2
    33   19   21 1
    34   19   22 1
    35   22   23 1
    36   23   24 2
    37   23   25 1
    38   23   26 1
    39   26   27 1
    40   27   28 2
    41   27   29 1
    42   27   30 1
    43   31   41 1
    44   31   42 1
@<TRIPOS>MOLECULE
CHEMBL538904__5
   43    45     0     0     0
SMALL
USER_CHARGES

@<TRIPOS>ATOM
      1 C1         -0.0164    1.3606    0.0095 C.2       1 <0>         0.2457
      2 N1          1.2014    1.8181    0.0004 N.2       1 <0>        -0.4237
      3 C2          2.0711    0.7788   -0.0135 C.2       1 <0>        -0.1406
      4 C3          3.4818    0.6749   -0.0276 C.2       1 <0>         0.5961
      5 O1          4.1818    1.6731   -0.0285 O.2       1 <0>        -0.5166
      6 N2          4.0343   -0.5584   -0.0395 N.am      1 <0>        -0.6577
      7 H1          4.9994   -0.6547   -0.0489 H         1 <0>         0.4115
      8 C4          3.2421   -1.6676   -0.0379 C.2       1 <0>         0.6338
      9 N3          1.9305   -1.5844   -0.0253 N.2       1 <0>        -0.5654
     10 C5          1.3128   -0.3975   -0.0126 C.2       1 <0>         0.2833
     11 N4          0.0021   -0.0041    0.0020 N.pl3     1 <0>        -0.4346
     12 C6         -1.1673   -0.8865    0.0089 C.3       1 <0>         0.1634
     13 C7         -2.0876   -0.5706   -1.1930 C.3       1 <0>        -0.1239
     14 C8         -3.0927    0.4177   -0.5572 C.3       1 <0>         0.0592
     15 C9         -3.0710    0.0916    0.9181 C.2       1 <0>        -0.1180
     16 C10        -2.0210   -0.6196    1.2268 C.2       1 <0>        -0.2065
     17 O2         -4.4011    0.2110   -1.0935 O.3       1 <0>        -0.3436
     18 C11        -5.2069    1.3905   -1.1309 C.3       1 <0>        -0.5635
     19 P1         -4.6456    2.4670   -2.4908 P.3       1 <0>         2.3132
     20 O3         -3.1690    2.8592   -2.2613 O.2       1 <0>        -1.0757
     21 O4         -4.7753    1.7118   -3.8325 O.3       1 <0>        -1.0838
     22 O5         -5.5536    3.7959   -2.5330 O.3       1 <0>        -1.1023
     23 P2         -5.5752    5.1064   -3.4680 P.3       1 <0>         2.3429
     24 O6         -4.1256    5.5482   -3.7690 O.2       1 <0>        -1.0963
     25 O7         -6.3004    4.7818   -4.7930 O.3       1 <0>        -1.1143
     26 O8         -6.3516    6.2948   -2.7084 O.3       1 <0>        -1.0979
     27 P3         -6.4577    7.8853   -2.9347 P.3       1 <0>         2.2679
     28 O9         -5.0730    8.4423   -3.3337 O.2       1 <0>        -1.1054
     29 O10        -7.4746    8.1786   -4.0604 O.3       1 <0>        -1.1200
     30 O11        -6.9473    8.5897   -1.5723 O.3       1 <0>        -0.9099
     31 N5          3.8310   -2.9070   -0.0502 N.pl3     1 <0>        -0.8288
     32 H2         -0.9084    1.9694    0.0254 H         1 <0>         0.2285
     33 H3         -0.8545   -1.9304   -0.0143 H         1 <0>         0.1128
     34 H4         -1.5288   -0.0956   -1.9994 H         1 <0>         0.1035
     35 H5         -2.5928   -1.4696   -1.5459 H         1 <0>         0.0996
     36 H6         -2.7713    1.4458   -0.7236 H         1 <0>         0.1335
     37 H7         -3.8251    0.4060    1.6244 H         1 <0>         0.1281
     38 H8         -1.7925   -0.9715    2.2220 H         1 <0>         0.1286
     39 H9         -6.2487    1.1138   -1.2929 H         1 <0>         0.0920
     40 H10        -5.1154    1.9232   -0.1844 H         1 <0>         0.0497
     41 H11        -7.0337    9.5508   -1.6355 H         1 <0>         0.3998
     42 H12         4.7979   -2.9845   -0.0598 H         1 <0>         0.4106
     43 H13         3.2805   -3.7056   -0.0492 H         1 <0>         0.4246
@<TRIPOS>BOND
     1    1   11 1
     2    1    2 2
     3    1   32 1
     4    2    3 1
     5    3   10 2
     6    3    4 1
     7    4    5 2
     8    4    6 am
     9    6    7 1
    10    6    8 1
    11    8    9 2
    12    8   31 1
    13    9   10 1
    14   10   11 1
    15   11   12 1
    16   12   16 1
    17   12   13 1
    18   12   33 1
    19   13   14 1
    20   13   34 1
    21   13   35 1
    22   14   15 1
    23   14   17 1
    24   14   36 1
    25   15   16 2
    26   15   37 1
    27   16   38 1
    28   17   18 1
    29   18   19 1
    30   18   39 1
    31   18   40 1
    32   19   20 2
    33   19   21 1
    34   19   22 1
    35   22   23 1
    36   23   24 2
    37   23   25 1
    38   23   26 1
    39   26   27 1
    40   27   28 2
    41   27   29 1
    42   27   30 1
    43   30   41 1
    44   31   42 1
    45   31   43 1
@<TRIPOS>MOLECULE
CHEMBL538904__6
   42    44     0     0     0
SMALL
USER_CHARGES

@<TRIPOS>ATOM
      1 C1         -0.0164    1.3606    0.0095 C.2       1 <0>         0.2511
      2 N1          1.2014    1.8181    0.0004 N.2       1 <0>        -0.4235
      3 C2          2.0711    0.7788   -0.0135 C.2       1 <0>        -0.1387
      4 C3          3.4818    0.6749   -0.0276 C.2       1 <0>         0.5959
      5 O1          4.1818    1.6731   -0.0285 O.2       1 <0>        -0.5172
      6 N2          4.0343   -0.5584   -0.0395 N.am      1 <0>        -0.6577
      7 H1          4.9994   -0.6547   -0.0489 H         1 <0>         0.4099
      8 C4          3.2421   -1.6676   -0.0379 C.2       1 <0>         0.6289
      9 N3          1.9305   -1.5844   -0.0253 N.2       1 <0>        -0.5620
     10 C5          1.3128   -0.3975   -0.0126 C.2       1 <0>         0.2776
     11 N4          0.0021   -0.0041    0.0020 N.pl3     1 <0>        -0.4331
     12 C6         -1.1673   -0.8865    0.0089 C.3       1 <0>         0.1646
     13 C7         -2.0876   -0.5706   -1.1930 C.3       1 <0>        -0.1235
     14 C8         -3.0927    0.4177   -0.5572 C.3       1 <0>         0.0566
     15 C9         -3.0710    0.0916    0.9181 C.2       1 <0>        -0.1106
     16 C10        -2.0210   -0.6196    1.2268 C.2       1 <0>        -0.2144
     17 O2         -4.4011    0.2110   -1.0935 O.3       1 <0>        -0.3455
     18 C11        -5.2069    1.3905   -1.1309 C.3       1 <0>        -0.5661
     19 P1         -4.6456    2.4670   -2.4908 P.3       1 <0>         2.3183
     20 O3         -3.1690    2.8592   -2.2613 O.2       1 <0>        -1.0809
     21 O4         -4.7753    1.7118   -3.8325 O.3       1 <0>        -1.0912
     22 O5         -5.5536    3.7959   -2.5330 O.3       1 <0>        -1.1028
     23 P2         -5.5752    5.1064   -3.4680 P.3       1 <0>         2.3424
     24 O6         -4.1256    5.5482   -3.7690 O.2       1 <0>        -1.1157
     25 O7         -6.3004    4.7818   -4.7930 O.3       1 <0>        -1.1379
     26 O8         -6.3516    6.2948   -2.7084 O.3       1 <0>        -1.1056
     27 P3         -6.4577    7.8853   -2.9347 P.3       1 <0>         2.2202
     28 O9         -5.0535    8.4501   -3.3393 O.2       1 <0>        -1.1958
     29 O10        -7.4889    8.1827   -4.0761 O.3       1 <0>        -1.2118
     30 O11        -6.9341    8.5708   -1.6090 O.3       1 <0>        -1.2136
     31 N5          3.8310   -2.9070   -0.0502 N.pl3     1 <0>        -0.8307
     32 H2         -0.9084    1.9694    0.0254 H         1 <0>         0.2311
     33 H3         -0.8545   -1.9304   -0.0143 H         1 <0>         0.1109
     34 H4         -1.5288   -0.0956   -1.9994 H         1 <0>         0.1033
     35 H5         -2.5928   -1.4696   -1.5459 H         1 <0>         0.0985
     36 H6         -2.7713    1.4458   -0.7236 H         1 <0>         0.1361
     37 H7         -3.8251    0.4060    1.6244 H         1 <0>         0.1288
     38 H8         -1.7925   -0.9715    2.2220 H         1 <0>         0.1271
     39 H9         -6.2487    1.1138   -1.2929 H         1 <0>         0.0925
     40 H10        -5.1154    1.9232   -0.1844 H         1 <0>         0.0517
     41 H11         4.7979   -2.9845   -0.0598 H         1 <0>         0.4092
     42 H12         3.2805   -3.7056   -0.0492 H         1 <0>         0.4236
@<TRIPOS>BOND
     1    1   11 1
     2    1    2 2
     3    1   32 1
     4    2    3 1
     5    3   10 2
     6    3    4 1
     7    4    5 2
     8    4    6 am
     9    6    7 1
    10    6    8 1
    11    8    9 2
    12    8   31 1
    13    9   10 1
    14   10   11 1
    15   11   12 1
    16   12   16 1
    17   12   13 1
    18   12   33 1
    19   13   14 1
    20   13   34 1
    21   13   35 1
    22   14   15 1
    23   14   17 1
    24   14   36 1
    25   15   16 2
    26   15   37 1
    27   16   38 1
    28   17   18 1
    29   18   19 1
    30   18   39 1
    31   18   40 1
    32   19   20 2
    33   19   21 1
    34   19   22 1
    35   22   23 1
    36   23   24 2
    37   23   25 1
    38   23   26 1
    39   26   27 1
    40   27   28 2
    41   27   29 1
    42   27   30 1
    43   31   41 1
    44   31   42 1
@<TRIPOS>MOLECULE
CHEMBL538904__7
   43    45     0     0     0
SMALL
USER_CHARGES

@<TRIPOS>ATOM
      1 C1         -0.0164    1.3606    0.0095 C.2       1 <0>         0.2457
      2 N1          1.2014    1.8181    0.0004 N.2       1 <0>        -0.4237
      3 C2          2.0711    0.7788   -0.0135 C.2       1 <0>        -0.1406
      4 C3          3.4818    0.6749   -0.0276 C.2       1 <0>         0.5961
      5 O1          4.1818    1.6731   -0.0285 O.2       1 <0>        -0.5166
      6 N2          4.0343   -0.5584   -0.0395 N.am      1 <0>        -0.6577
      7 H1          4.9994   -0.6547   -0.0489 H         1 <0>         0.4115
      8 C4          3.2421   -1.6676   -0.0379 C.2       1 <0>         0.6338
      9 N3          1.9305   -1.5844   -0.0253 N.2       1 <0>        -0.5654
     10 C5          1.3128   -0.3975   -0.0126 C.2       1 <0>         0.2833
     11 N4          0.0021   -0.0041    0.0020 N.pl3     1 <0>        -0.4346
     12 C6         -1.1673   -0.8865    0.0089 C.3       1 <0>         0.1634
     13 C7         -2.0876   -0.5706   -1.1930 C.3       1 <0>        -0.1239
     14 C8         -3.0927    0.4177   -0.5572 C.3       1 <0>         0.0592
     15 C9         -3.0710    0.0916    0.9181 C.2       1 <0>        -0.1180
     16 C10        -2.0210   -0.6196    1.2268 C.2       1 <0>        -0.2065
     17 O2         -4.4011    0.2110   -1.0935 O.3       1 <0>        -0.3436
     18 C11        -5.2069    1.3905   -1.1309 C.3       1 <0>        -0.5635
     19 P1         -4.6456    2.4670   -2.4908 P.3       1 <0>         2.3132
     20 O3         -3.1690    2.8592   -2.2613 O.2       1 <0>        -1.0757
     21 O4         -4.7753    1.7118   -3.8325 O.3       1 <0>        -1.0838
     22 O5         -5.5536    3.7959   -2.5330 O.3       1 <0>        -1.1023
     23 P2         -5.5752    5.1064   -3.4680 P.3       1 <0>         2.3429
     24 O6         -4.1256    5.5482   -3.7690 O.2       1 <0>        -1.0963
     25 O7         -6.3004    4.7818   -4.7930 O.3       1 <0>        -1.1143
     26 O8         -6.3516    6.2948   -2.7084 O.3       1 <0>        -1.0979
     27 P3         -6.4577    7.8853   -2.9347 P.3       1 <0>         2.2679
     28 O9         -5.0730    8.4423   -3.3337 O.2       1 <0>        -1.1054
     29 O10        -7.4746    8.1786   -4.0604 O.3       1 <0>        -1.1200
     30 O11        -6.9473    8.5897   -1.5723 O.3       1 <0>        -0.9099
     31 N5          3.8310   -2.9070   -0.0502 N.pl3     1 <0>        -0.8288
     32 H2         -0.9084    1.9694    0.0254 H         1 <0>         0.2285
     33 H3         -0.8545   -1.9304   -0.0143 H         1 <0>         0.1128
     34 H4         -1.5288   -0.0956   -1.9994 H         1 <0>         0.1035
     35 H5         -2.5928   -1.4696   -1.5459 H         1 <0>         0.0996
     36 H6         -2.7713    1.4458   -0.7236 H         1 <0>         0.1335
     37 H7         -3.8251    0.4060    1.6244 H         1 <0>         0.1281
     38 H8         -1.7925   -0.9715    2.2220 H         1 <0>         0.1286
     39 H9         -6.2487    1.1138   -1.2929 H         1 <0>         0.0920
     40 H10        -5.1154    1.9232   -0.1844 H         1 <0>         0.0497
     41 H11        -7.0337    9.5508   -1.6355 H         1 <0>         0.3998
     42 H12         4.7979   -2.9845   -0.0598 H         1 <0>         0.4106
     43 H13         3.2805   -3.7056   -0.0492 H         1 <0>         0.4246
@<TRIPOS>BOND
     1    1   11 1
     2    1    2 2
     3    1   32 1
     4    2    3 1
     5    3   10 2
     6    3    4 1
     7    4    5 2
     8    4    6 am
     9    6    7 1
    10    6    8 1
    11    8    9 2
    12    8   31 1
    13    9   10 1
    14   10   11 1
    15   11   12 1
    16   12   16 1
    17   12   13 1
    18   12   33 1
    19   13   14 1
    20   13   34 1
    21   13   35 1
    22   14   15 1
    23   14   17 1
    24   14   36 1
    25   15   16 2
    26   15   37 1
    27   16   38 1
    28   17   18 1
    29   18   19 1
    30   18   39 1
    31   18   40 1
    32   19   20 2
    33   19   21 1
    34   19   22 1
    35   22   23 1
    36   23   24 2
    37   23   25 1
    38   23   26 1
    39   26   27 1
    40   27   28 2
    41   27   29 1
    42   27   30 1
    43   30   41 1
    44   31   42 1
    45   31   43 1
@<TRIPOS>MOLECULE
CHEMBL538904__8
   42    44     0     0     0
SMALL
USER_CHARGES

@<TRIPOS>ATOM
      1 C1          0.0430    1.4081   -0.1685 C.2       1 <0>         0.2518
      2 N1          1.2581    1.8525   -0.3045 N.2       1 <0>        -0.4382
      3 C2          2.1210    0.8074   -0.3022 C.2       1 <0>        -0.1420
      4 C3          3.5262    0.6899   -0.4136 C.2       1 <0>         0.5965
      5 O1          4.2274    1.6786   -0.5449 O.2       1 <0>        -0.5221
      6 N2          4.0723   -0.5456   -0.3704 N.am      1 <0>        -0.6574
      7 H1          5.0337   -0.6511   -0.4444 H         1 <0>         0.4101
      8 C4          3.2789   -1.6441   -0.2228 C.2       1 <0>         0.6289
      9 N3          1.9722   -1.5482   -0.1186 N.2       1 <0>        -0.5607
     10 C5          1.3611   -0.3583   -0.1525 C.2       1 <0>         0.2773
     11 N4          0.0565    0.0469   -0.0706 N.pl3     1 <0>        -0.4289
     12 C6         -1.1119   -0.8216    0.0927 C.3       1 <0>         0.1584
     13 C7         -2.1191   -0.5918   -1.0579 C.3       1 <0>        -0.1285
     14 C8         -3.0703    0.4520   -0.4279 C.3       1 <0>         0.0629
     15 C9         -2.9385    0.2414    1.0626 C.2       1 <0>        -0.1143
     16 C10        -1.8705   -0.4532    1.3465 C.2       1 <0>        -0.2010
     17 O2         -2.6622    1.7750   -0.7817 O.3       1 <0>        -0.3477
     18 C11        -3.7464    2.6856   -0.9746 C.3       1 <0>        -0.5643
     19 P1         -4.5315    2.3627   -2.5879 P.3       1 <0>         2.3182
     20 O3         -3.4614    2.4152   -3.7011 O.2       1 <0>        -1.0802
     21 O4         -5.1881    0.9643   -2.5704 O.3       1 <0>        -1.0944
     22 O5         -5.6556    3.4799   -2.8710 O.3       1 <0>        -1.1032
     23 P2         -6.6796    3.7543   -4.0828 P.3       1 <0>         2.3442
     24 O6         -5.9685    3.4876   -5.4283 O.2       1 <0>        -1.1176
     25 O7         -7.8987    2.8147   -3.9495 O.3       1 <0>        -1.1384
     26 O8         -7.1740    5.2856   -4.0313 O.3       1 <0>        -1.1057
     27 P3         -7.9213    6.2553   -5.0769 P.3       1 <0>         2.2204
     28 O9         -7.3471    6.0147   -6.5145 O.2       1 <0>        -1.1962
     29 O10        -9.4573    5.9465   -5.0696 O.3       1 <0>        -1.2117
     30 O11        -7.6868    7.7483   -4.6640 O.3       1 <0>        -1.2133
     31 N5          3.8613   -2.8860   -0.1822 N.pl3     1 <0>        -0.8298
     32 H2         -0.8433    2.0244   -0.1335 H         1 <0>         0.2374
     33 H3         -0.8051   -1.8670    0.1279 H         1 <0>         0.1111
     34 H4         -1.6212   -0.1860   -1.9386 H         1 <0>         0.1045
     35 H5         -2.6524   -1.5109   -1.3007 H         1 <0>         0.1082
     36 H6         -4.0967    0.2721   -0.7475 H         1 <0>         0.1272
     37 H7         -3.6363    0.6166    1.7966 H         1 <0>         0.1297
     38 H8         -1.5689   -0.7288    2.3462 H         1 <0>         0.1261
     39 H9         -4.4802    2.5506   -0.1800 H         1 <0>         0.0531
     40 H10        -3.3703    3.7084   -0.9519 H         1 <0>         0.0959
     41 H11         4.8244   -2.9727   -0.2581 H         1 <0>         0.4094
     42 H12         3.3098   -3.6771   -0.0776 H         1 <0>         0.4244
@<TRIPOS>BOND
     1    1   11 1
     2    1    2 2
     3    1   32 1
     4    2    3 1
     5    3   10 2
     6    3    4 1
     7    4    5 2
     8    4    6 am
     9    6    7 1
    10    6    8 1
    11    8    9 2
    12    8   31 1
    13    9   10 1
    14   10   11 1
    15   11   12 1
    16   12   16 1
    17   12   13 1
    18   12   33 1
    19   13   14 1
    20   13   34 1
    21   13   35 1
    22   14   15 1
    23   14   17 1
    24   14   36 1
    25   15   16 2
    26   15   37 1
    27   16   38 1
    28   17   18 1
    29   18   19 1
    30   18   39 1
    31   18   40 1
    32   19   20 2
    33   19   21 1
    34   19   22 1
    35   22   23 1
    36   23   24 2
    37   23   25 1
    38   23   26 1
    39   26   27 1
    40   27   28 2
    41   27   29 1
    42   27   30 1
    43   31   41 1
    44   31   42 1
@<TRIPOS>MOLECULE
CHEMBL538904__9
   43    45     0     0     0
SMALL
USER_CHARGES

@<TRIPOS>ATOM
      1 C1          0.0430    1.4081   -0.1685 C.2       1 <0>         0.2472
      2 N1          1.2581    1.8525   -0.3045 N.2       1 <0>        -0.4378
      3 C2          2.1210    0.8074   -0.3022 C.2       1 <0>        -0.1435
      4 C3          3.5262    0.6899   -0.4136 C.2       1 <0>         0.5966
      5 O1          4.2274    1.6786   -0.5449 O.2       1 <0>        -0.5211
      6 N2          4.0723   -0.5456   -0.3704 N.am      1 <0>        -0.6575
      7 H1          5.0337   -0.6511   -0.4444 H         1 <0>         0.4115
      8 C4          3.2789   -1.6441   -0.2228 C.2       1 <0>         0.6333
      9 N3          1.9722   -1.5482   -0.1186 N.2       1 <0>        -0.5638
     10 C5          1.3611   -0.3583   -0.1525 C.2       1 <0>         0.2821
     11 N4          0.0565    0.0469   -0.0706 N.pl3     1 <0>        -0.4306
     12 C6         -1.1119   -0.8216    0.0927 C.3       1 <0>         0.1575
     13 C7         -2.1191   -0.5918   -1.0579 C.3       1 <0>        -0.1285
     14 C8         -3.0703    0.4520   -0.4279 C.3       1 <0>         0.0651
     15 C9         -2.9385    0.2414    1.0626 C.2       1 <0>        -0.1209
     16 C10        -1.8705   -0.4532    1.3465 C.2       1 <0>        -0.1941
     17 O2         -2.6622    1.7750   -0.7817 O.3       1 <0>        -0.3466
     18 C11        -3.7464    2.6856   -0.9746 C.3       1 <0>        -0.5622
     19 P1         -4.5315    2.3627   -2.5879 P.3       1 <0>         2.3135
     20 O3         -3.4614    2.4152   -3.7011 O.2       1 <0>        -1.0749
     21 O4         -5.1881    0.9643   -2.5704 O.3       1 <0>        -1.0873
     22 O5         -5.6556    3.4799   -2.8710 O.3       1 <0>        -1.1028
     23 P2         -6.6796    3.7543   -4.0828 P.3       1 <0>         2.3448
     24 O6         -5.9685    3.4876   -5.4283 O.2       1 <0>        -1.0984
     25 O7         -7.8987    2.8147   -3.9495 O.3       1 <0>        -1.1149
     26 O8         -7.1740    5.2856   -4.0313 O.3       1 <0>        -1.0980
     27 P3         -7.9213    6.2553   -5.0769 P.3       1 <0>         2.2686
     28 O9         -7.3551    6.0180   -6.4947 O.2       1 <0>        -1.1061
     29 O10        -9.4360    5.9508   -5.0697 O.3       1 <0>        -1.1202
     30 O11        -7.6804    7.7896   -4.6526 O.3       1 <0>        -0.9096
     31 N5          3.8613   -2.8860   -0.1822 N.pl3     1 <0>        -0.8281
     32 H2         -0.8433    2.0244   -0.1335 H         1 <0>         0.2353
     33 H3         -0.8051   -1.8670    0.1279 H         1 <0>         0.1129
     34 H4         -1.6212   -0.1860   -1.9386 H         1 <0>         0.1042
     35 H5         -2.6524   -1.5109   -1.3007 H         1 <0>         0.1091
     36 H6         -4.0967    0.2721   -0.7475 H         1 <0>         0.1257
     37 H7         -3.6363    0.6166    1.7966 H         1 <0>         0.1297
     38 H8         -1.5689   -0.7288    2.3462 H         1 <0>         0.1278
     39 H9         -4.4802    2.5506   -0.1800 H         1 <0>         0.0533
     40 H10        -3.3703    3.7084   -0.9519 H         1 <0>         0.0931
     41 H11        -8.1032    8.4311   -5.2398 H         1 <0>         0.3998
     42 H12         4.8244   -2.9727   -0.2581 H         1 <0>         0.4106
     43 H13         3.3098   -3.6771   -0.0776 H         1 <0>         0.4253
@<TRIPOS>BOND
     1    1   11 1
     2    1    2 2
     3    1   32 1
     4    2    3 1
     5    3   10 2
     6    3    4 1
     7    4    5 2
     8    4    6 am
     9    6    7 1
    10    6    8 1
    11    8    9 2
    12    8   31 1
    13    9   10 1
    14   10   11 1
    15   11   12 1
    16   12   16 1
    17   12   13 1
    18   12   33 1
    19   13   14 1
    20   13   34 1
    21   13   35 1
    22   14   15 1
    23   14   17 1
    24   14   36 1
    25   15   16 2
    26   15   37 1
    27   16   38 1
    28   17   18 1
    29   18   19 1
    30   18   39 1
    31   18   40 1
    32   19   20 2
    33   19   21 1
    34   19   22 1
    35   22   23 1
    36   23   24 2
    37   23   25 1
    38   23   26 1
    39   26   27 1
    40   27   28 2
    41   27   29 1
    42   27   30 1
    43   30   41 1
    44   31   42 1
    45   31   43 1
@<TRIPOS>MOLECULE
CHEMBL538904__10
   42    44     0     0     0
SMALL
USER_CHARGES

@<TRIPOS>ATOM
      1 C1          0.0430    1.4081   -0.1685 C.2       1 <0>         0.2518
      2 N1          1.2581    1.8525   -0.3045 N.2       1 <0>        -0.4382
      3 C2          2.1210    0.8074   -0.3022 C.2       1 <0>        -0.1420
      4 C3          3.5262    0.6899   -0.4136 C.2       1 <0>         0.5965
      5 O1          4.2274    1.6786   -0.5449 O.2       1 <0>        -0.5221
      6 N2          4.0723   -0.5456   -0.3704 N.am      1 <0>        -0.6574
      7 H1          5.0337   -0.6511   -0.4444 H         1 <0>         0.4101
      8 C4          3.2789   -1.6441   -0.2228 C.2       1 <0>         0.6289
      9 N3          1.9722   -1.5482   -0.1186 N.2       1 <0>        -0.5607
     10 C5          1.3611   -0.3583   -0.1525 C.2       1 <0>         0.2773
     11 N4          0.0565    0.0469   -0.0706 N.pl3     1 <0>        -0.4289
     12 C6         -1.1119   -0.8216    0.0927 C.3       1 <0>         0.1584
     13 C7         -2.1191   -0.5918   -1.0579 C.3       1 <0>        -0.1285
     14 C8         -3.0703    0.4520   -0.4279 C.3       1 <0>         0.0629
     15 C9         -2.9385    0.2414    1.0626 C.2       1 <0>        -0.1143
     16 C10        -1.8705   -0.4532    1.3465 C.2       1 <0>        -0.2010
     17 O2         -2.6622    1.7750   -0.7817 O.3       1 <0>        -0.3477
     18 C11        -3.7464    2.6856   -0.9746 C.3       1 <0>        -0.5643
     19 P1         -4.5315    2.3627   -2.5879 P.3       1 <0>         2.3182
     20 O3         -3.4614    2.4152   -3.7011 O.2       1 <0>        -1.0802
     21 O4         -5.1881    0.9643   -2.5704 O.3       1 <0>        -1.0944
     22 O5         -5.6556    3.4799   -2.8710 O.3       1 <0>        -1.1032
     23 P2         -6.6796    3.7543   -4.0828 P.3       1 <0>         2.3442
     24 O6         -5.9685    3.4876   -5.4283 O.2       1 <0>        -1.1176
     25 O7         -7.8987    2.8147   -3.9495 O.3       1 <0>        -1.1384
     26 O8         -7.1740    5.2856   -4.0313 O.3       1 <0>        -1.1057
     27 P3         -7.9213    6.2553   -5.0769 P.3       1 <0>         2.2204
     28 O9         -7.3471    6.0147   -6.5145 O.2       1 <0>        -1.1962
     29 O10        -9.4573    5.9465   -5.0696 O.3       1 <0>        -1.2117
     30 O11        -7.6868    7.7483   -4.6640 O.3       1 <0>        -1.2133
     31 N5          3.8613   -2.8860   -0.1822 N.pl3     1 <0>        -0.8298
     32 H2         -0.8433    2.0244   -0.1335 H         1 <0>         0.2374
     33 H3         -0.8051   -1.8670    0.1279 H         1 <0>         0.1111
     34 H4         -1.6212   -0.1860   -1.9386 H         1 <0>         0.1045
     35 H5         -2.6524   -1.5109   -1.3007 H         1 <0>         0.1082
     36 H6         -4.0967    0.2721   -0.7475 H         1 <0>         0.1272
     37 H7         -3.6363    0.6166    1.7966 H         1 <0>         0.1297
     38 H8         -1.5689   -0.7288    2.3462 H         1 <0>         0.1261
     39 H9         -4.4802    2.5506   -0.1800 H         1 <0>         0.0531
     40 H10        -3.3703    3.7084   -0.9519 H         1 <0>         0.0959
     41 H11         4.8244   -2.9727   -0.2581 H         1 <0>         0.4094
     42 H12         3.3098   -3.6771   -0.0776 H         1 <0>         0.4244
@<TRIPOS>BOND
     1    1   11 1
     2    1    2 2
     3    1   32 1
     4    2    3 1
     5    3   10 2
     6    3    4 1
     7    4    5 2
     8    4    6 am
     9    6    7 1
    10    6    8 1
    11    8    9 2
    12    8   31 1
    13    9   10 1
    14   10   11 1
    15   11   12 1
    16   12   16 1
    17   12   13 1
    18   12   33 1
    19   13   14 1
    20   13   34 1
    21   13   35 1
    22   14   15 1
    23   14   17 1
    24   14   36 1
    25   15   16 2
    26   15   37 1
    27   16   38 1
    28   17   18 1
    29   18   19 1
    30   18   39 1
    31   18   40 1
    32   19   20 2
    33   19   21 1
    34   19   22 1
    35   22   23 1
    36   23   24 2
    37   23   25 1
    38   23   26 1
    39   26   27 1
    40   27   28 2
    41   27   29 1
    42   27   30 1
    43   31   41 1
    44   31   42 1
@<TRIPOS>MOLECULE
CHEMBL538904__11
   43    45     0     0     0
SMALL
USER_CHARGES

@<TRIPOS>ATOM
      1 C1          0.0430    1.4081   -0.1685 C.2       1 <0>         0.2472
      2 N1          1.2581    1.8525   -0.3045 N.2       1 <0>        -0.4378
      3 C2          2.1210    0.8074   -0.3022 C.2       1 <0>        -0.1435
      4 C3          3.5262    0.6899   -0.4136 C.2       1 <0>         0.5966
      5 O1          4.2274    1.6786   -0.5449 O.2       1 <0>        -0.5211
      6 N2          4.0723   -0.5456   -0.3704 N.am      1 <0>        -0.6575
      7 H1          5.0337   -0.6511   -0.4444 H         1 <0>         0.4115
      8 C4          3.2789   -1.6441   -0.2228 C.2       1 <0>         0.6333
      9 N3          1.9722   -1.5482   -0.1186 N.2       1 <0>        -0.5638
     10 C5          1.3611   -0.3583   -0.1525 C.2       1 <0>         0.2821
     11 N4          0.0565    0.0469   -0.0706 N.pl3     1 <0>        -0.4306
     12 C6         -1.1119   -0.8216    0.0927 C.3       1 <0>         0.1575
     13 C7         -2.1191   -0.5918   -1.0579 C.3       1 <0>        -0.1285
     14 C8         -3.0703    0.4520   -0.4279 C.3       1 <0>         0.0651
     15 C9         -2.9385    0.2414    1.0626 C.2       1 <0>        -0.1209
     16 C10        -1.8705   -0.4532    1.3465 C.2       1 <0>        -0.1941
     17 O2         -2.6622    1.7750   -0.7817 O.3       1 <0>        -0.3466
     18 C11        -3.7464    2.6856   -0.9746 C.3       1 <0>        -0.5622
     19 P1         -4.5315    2.3627   -2.5879 P.3       1 <0>         2.3135
     20 O3         -3.4614    2.4152   -3.7011 O.2       1 <0>        -1.0749
     21 O4         -5.1881    0.9643   -2.5704 O.3       1 <0>        -1.0873
     22 O5         -5.6556    3.4799   -2.8710 O.3       1 <0>        -1.1028
     23 P2         -6.6796    3.7543   -4.0828 P.3       1 <0>         2.3448
     24 O6         -5.9685    3.4876   -5.4283 O.2       1 <0>        -1.0984
     25 O7         -7.8987    2.8147   -3.9495 O.3       1 <0>        -1.1149
     26 O8         -7.1740    5.2856   -4.0313 O.3       1 <0>        -1.0980
     27 P3         -7.9213    6.2553   -5.0769 P.3       1 <0>         2.2686
     28 O9         -7.3551    6.0180   -6.4947 O.2       1 <0>        -1.1061
     29 O10        -9.4360    5.9508   -5.0697 O.3       1 <0>        -1.1202
     30 O11        -7.6804    7.7896   -4.6526 O.3       1 <0>        -0.9096
     31 N5          3.8613   -2.8860   -0.1822 N.pl3     1 <0>        -0.8281
     32 H2         -0.8433    2.0244   -0.1335 H         1 <0>         0.2353
     33 H3         -0.8051   -1.8670    0.1279 H         1 <0>         0.1129
     34 H4         -1.6212   -0.1860   -1.9386 H         1 <0>         0.1042
     35 H5         -2.6524   -1.5109   -1.3007 H         1 <0>         0.1091
     36 H6         -4.0967    0.2721   -0.7475 H         1 <0>         0.1257
     37 H7         -3.6363    0.6166    1.7966 H         1 <0>         0.1297
     38 H8         -1.5689   -0.7288    2.3462 H         1 <0>         0.1278
     39 H9         -4.4802    2.5506   -0.1800 H         1 <0>         0.0533
     40 H10        -3.3703    3.7084   -0.9519 H         1 <0>         0.0931
     41 H11        -8.1032    8.4311   -5.2398 H         1 <0>         0.3998
     42 H12         4.8244   -2.9727   -0.2581 H         1 <0>         0.4106
     43 H13         3.3098   -3.6771   -0.0776 H         1 <0>         0.4253
@<TRIPOS>BOND
     1    1   11 1
     2    1    2 2
     3    1   32 1
     4    2    3 1
     5    3   10 2
     6    3    4 1
     7    4    5 2
     8    4    6 am
     9    6    7 1
    10    6    8 1
    11    8    9 2
    12    8   31 1
    13    9   10 1
    14   10   11 1
    15   11   12 1
    16   12   16 1
    17   12   13 1
    18   12   33 1
    19   13   14 1
    20   13   34 1
    21   13   35 1
    22   14   15 1
    23   14   17 1
    24   14   36 1
    25   15   16 2
    26   15   37 1
    27   16   38 1
    28   17   18 1
    29   18   19 1
    30   18   39 1
    31   18   40 1
    32   19   20 2
    33   19   21 1
    34   19   22 1
    35   22   23 1
    36   23   24 2
    37   23   25 1
    38   23   26 1
    39   26   27 1
    40   27   28 2
    41   27   29 1
    42   27   30 1
    43   30   41 1
    44   31   42 1
    45   31   43 1
@<TRIPOS>MOLECULE
CHEMBL538904__12
   42    44     0     0     0
SMALL
USER_CHARGES

@<TRIPOS>ATOM
      1 C1          0.0430    1.4081   -0.1685 C.2       1 <0>         0.2518
      2 N1          1.2581    1.8525   -0.3045 N.2       1 <0>        -0.4382
      3 C2          2.1210    0.8074   -0.3022 C.2       1 <0>        -0.1420
      4 C3          3.5262    0.6899   -0.4136 C.2       1 <0>         0.5965
      5 O1          4.2274    1.6786   -0.5449 O.2       1 <0>        -0.5221
      6 N2          4.0723   -0.5456   -0.3704 N.am      1 <0>        -0.6574
      7 H1          5.0337   -0.6511   -0.4444 H         1 <0>         0.4101
      8 C4          3.2789   -1.6441   -0.2228 C.2       1 <0>         0.6289
      9 N3          1.9722   -1.5482   -0.1186 N.2       1 <0>        -0.5607
     10 C5          1.3611   -0.3583   -0.1525 C.2       1 <0>         0.2773
     11 N4          0.0565    0.0469   -0.0706 N.pl3     1 <0>        -0.4289
     12 C6         -1.1119   -0.8216    0.0927 C.3       1 <0>         0.1584
     13 C7         -2.1191   -0.5918   -1.0579 C.3       1 <0>        -0.1285
     14 C8         -3.0703    0.4520   -0.4279 C.3       1 <0>         0.0629
     15 C9         -2.9385    0.2414    1.0626 C.2       1 <0>        -0.1143
     16 C10        -1.8705   -0.4532    1.3465 C.2       1 <0>        -0.2010
     17 O2         -2.6622    1.7750   -0.7817 O.3       1 <0>        -0.3477
     18 C11        -3.7464    2.6856   -0.9746 C.3       1 <0>        -0.5643
     19 P1         -4.5315    2.3627   -2.5879 P.3       1 <0>         2.3182
     20 O3         -3.4614    2.4152   -3.7011 O.2       1 <0>        -1.0802
     21 O4         -5.1881    0.9643   -2.5704 O.3       1 <0>        -1.0944
     22 O5         -5.6556    3.4799   -2.8710 O.3       1 <0>        -1.1032
     23 P2         -6.6796    3.7543   -4.0828 P.3       1 <0>         2.3442
     24 O6         -5.9685    3.4876   -5.4283 O.2       1 <0>        -1.1176
     25 O7         -7.8987    2.8147   -3.9495 O.3       1 <0>        -1.1384
     26 O8         -7.1740    5.2856   -4.0313 O.3       1 <0>        -1.1057
     27 P3         -7.9213    6.2553   -5.0769 P.3       1 <0>         2.2204
     28 O9         -7.3471    6.0147   -6.5145 O.2       1 <0>        -1.1962
     29 O10        -9.4573    5.9465   -5.0696 O.3       1 <0>        -1.2117
     30 O11        -7.6868    7.7483   -4.6640 O.3       1 <0>        -1.2133
     31 N5          3.8613   -2.8860   -0.1822 N.pl3     1 <0>        -0.8298
     32 H2         -0.8433    2.0244   -0.1335 H         1 <0>         0.2374
     33 H3         -0.8051   -1.8670    0.1279 H         1 <0>         0.1111
     34 H4         -1.6212   -0.1860   -1.9386 H         1 <0>         0.1045
     35 H5         -2.6524   -1.5109   -1.3007 H         1 <0>         0.1082
     36 H6         -4.0967    0.2721   -0.7475 H         1 <0>         0.1272
     37 H7         -3.6363    0.6166    1.7966 H         1 <0>         0.1297
     38 H8         -1.5689   -0.7288    2.3462 H         1 <0>         0.1261
     39 H9         -4.4802    2.5506   -0.1800 H         1 <0>         0.0531
     40 H10        -3.3703    3.7084   -0.9519 H         1 <0>         0.0959
     41 H11         4.8244   -2.9727   -0.2581 H         1 <0>         0.4094
     42 H12         3.3098   -3.6771   -0.0776 H         1 <0>         0.4244
@<TRIPOS>BOND
     1    1   11 1
     2    1    2 2
     3    1   32 1
     4    2    3 1
     5    3   10 2
     6    3    4 1
     7    4    5 2
     8    4    6 am
     9    6    7 1
    10    6    8 1
    11    8    9 2
    12    8   31 1
    13    9   10 1
    14   10   11 1
    15   11   12 1
    16   12   16 1
    17   12   13 1
    18   12   33 1
    19   13   14 1
    20   13   34 1
    21   13   35 1
    22   14   15 1
    23   14   17 1
    24   14   36 1
    25   15   16 2
    26   15   37 1
    27   16   38 1
    28   17   18 1
    29   18   19 1
    30   18   39 1
    31   18   40 1
    32   19   20 2
    33   19   21 1
    34   19   22 1
    35   22   23 1
    36   23   24 2
    37   23   25 1
    38   23   26 1
    39   26   27 1
    40   27   28 2
    41   27   29 1
    42   27   30 1
    43   31   41 1
    44   31   42 1
@<TRIPOS>MOLECULE
CHEMBL538904__13
   43    45     0     0     0
SMALL
USER_CHARGES

@<TRIPOS>ATOM
      1 C1          0.0430    1.4081   -0.1685 C.2       1 <0>         0.2472
      2 N1          1.2581    1.8525   -0.3045 N.2       1 <0>        -0.4378
      3 C2          2.1210    0.8074   -0.3022 C.2       1 <0>        -0.1435
      4 C3          3.5262    0.6899   -0.4136 C.2       1 <0>         0.5966
      5 O1          4.2274    1.6786   -0.5449 O.2       1 <0>        -0.5211
      6 N2          4.0723   -0.5456   -0.3704 N.am      1 <0>        -0.6575
      7 H1          5.0337   -0.6511   -0.4444 H         1 <0>         0.4115
      8 C4          3.2789   -1.6441   -0.2228 C.2       1 <0>         0.6333
      9 N3          1.9722   -1.5482   -0.1186 N.2       1 <0>        -0.5638
     10 C5          1.3611   -0.3583   -0.1525 C.2       1 <0>         0.2821
     11 N4          0.0565    0.0469   -0.0706 N.pl3     1 <0>        -0.4306
     12 C6         -1.1119   -0.8216    0.0927 C.3       1 <0>         0.1575
     13 C7         -2.1191   -0.5918   -1.0579 C.3       1 <0>        -0.1285
     14 C8         -3.0703    0.4520   -0.4279 C.3       1 <0>         0.0651
     15 C9         -2.9385    0.2414    1.0626 C.2       1 <0>        -0.1209
     16 C10        -1.8705   -0.4532    1.3465 C.2       1 <0>        -0.1941
     17 O2         -2.6622    1.7750   -0.7817 O.3       1 <0>        -0.3466
     18 C11        -3.7464    2.6856   -0.9746 C.3       1 <0>        -0.5622
     19 P1         -4.5315    2.3627   -2.5879 P.3       1 <0>         2.3135
     20 O3         -3.4614    2.4152   -3.7011 O.2       1 <0>        -1.0749
     21 O4         -5.1881    0.9643   -2.5704 O.3       1 <0>        -1.0873
     22 O5         -5.6556    3.4799   -2.8710 O.3       1 <0>        -1.1028
     23 P2         -6.6796    3.7543   -4.0828 P.3       1 <0>         2.3448
     24 O6         -5.9685    3.4876   -5.4283 O.2       1 <0>        -1.0984
     25 O7         -7.8987    2.8147   -3.9495 O.3       1 <0>        -1.1149
     26 O8         -7.1740    5.2856   -4.0313 O.3       1 <0>        -1.0980
     27 P3         -7.9213    6.2553   -5.0769 P.3       1 <0>         2.2686
     28 O9         -7.3551    6.0180   -6.4947 O.2       1 <0>        -1.1061
     29 O10        -9.4360    5.9508   -5.0697 O.3       1 <0>        -1.1202
     30 O11        -7.6804    7.7896   -4.6526 O.3       1 <0>        -0.9096
     31 N5          3.8613   -2.8860   -0.1822 N.pl3     1 <0>        -0.8281
     32 H2         -0.8433    2.0244   -0.1335 H         1 <0>         0.2353
     33 H3         -0.8051   -1.8670    0.1279 H         1 <0>         0.1129
     34 H4         -1.6212   -0.1860   -1.9386 H         1 <0>         0.1042
     35 H5         -2.6524   -1.5109   -1.3007 H         1 <0>         0.1091
     36 H6         -4.0967    0.2721   -0.7475 H         1 <0>         0.1257
     37 H7         -3.6363    0.6166    1.7966 H         1 <0>         0.1297
     38 H8         -1.5689   -0.7288    2.3462 H         1 <0>         0.1278
     39 H9         -4.4802    2.5506   -0.1800 H         1 <0>         0.0533
     40 H10        -3.3703    3.7084   -0.9519 H         1 <0>         0.0931
     41 H11        -8.1032    8.4311   -5.2398 H         1 <0>         0.3998
     42 H12         4.8244   -2.9727   -0.2581 H         1 <0>         0.4106
     43 H13         3.3098   -3.6771   -0.0776 H         1 <0>         0.4253
@<TRIPOS>BOND
     1    1   11 1
     2    1    2 2
     3    1   32 1
     4    2    3 1
     5    3   10 2
     6    3    4 1
     7    4    5 2
     8    4    6 am
     9    6    7 1
    10    6    8 1
    11    8    9 2
    12    8   31 1
    13    9   10 1
    14   10   11 1
    15   11   12 1
    16   12   16 1
    17   12   13 1
    18   12   33 1
    19   13   14 1
    20   13   34 1
    21   13   35 1
    22   14   15 1
    23   14   17 1
    24   14   36 1
    25   15   16 2
    26   15   37 1
    27   16   38 1
    28   17   18 1
    29   18   19 1
    30   18   39 1
    31   18   40 1
    32   19   20 2
    33   19   21 1
    34   19   22 1
    35   22   23 1
    36   23   24 2
    37   23   25 1
    38   23   26 1
    39   26   27 1
    40   27   28 2
    41   27   29 1
    42   27   30 1
    43   30   41 1
    44   31   42 1
    45   31   43 1
@<TRIPOS>MOLECULE
CHEMBL538904__14
   42    44     0     0     0
SMALL
USER_CHARGES

@<TRIPOS>ATOM
      1 C1          0.0430    1.4081   -0.1685 C.2       1 <0>         0.2518
      2 N1          1.2581    1.8525   -0.3045 N.2       1 <0>        -0.4382
      3 C2          2.1210    0.8074   -0.3022 C.2       1 <0>        -0.1420
      4 C3          3.5262    0.6899   -0.4136 C.2       1 <0>         0.5965
      5 O1          4.2274    1.6786   -0.5449 O.2       1 <0>        -0.5221
      6 N2          4.0723   -0.5456   -0.3704 N.am      1 <0>        -0.6574
      7 H1          5.0337   -0.6511   -0.4444 H         1 <0>         0.4101
      8 C4          3.2789   -1.6441   -0.2228 C.2       1 <0>         0.6289
      9 N3          1.9722   -1.5482   -0.1186 N.2       1 <0>        -0.5607
     10 C5          1.3611   -0.3583   -0.1525 C.2       1 <0>         0.2773
     11 N4          0.0565    0.0469   -0.0706 N.pl3     1 <0>        -0.4289
     12 C6         -1.1119   -0.8216    0.0927 C.3       1 <0>         0.1584
     13 C7         -2.1191   -0.5918   -1.0579 C.3       1 <0>        -0.1285
     14 C8         -3.0703    0.4520   -0.4279 C.3       1 <0>         0.0629
     15 C9         -2.9385    0.2414    1.0626 C.2       1 <0>        -0.1143
     16 C10        -1.8705   -0.4532    1.3465 C.2       1 <0>        -0.2010
     17 O2         -2.6622    1.7750   -0.7817 O.3       1 <0>        -0.3477
     18 C11        -3.7464    2.6856   -0.9746 C.3       1 <0>        -0.5643
     19 P1         -4.5315    2.3627   -2.5879 P.3       1 <0>         2.3182
     20 O3         -3.4614    2.4152   -3.7011 O.2       1 <0>        -1.0802
     21 O4         -5.1881    0.9643   -2.5704 O.3       1 <0>        -1.0944
     22 O5         -5.6556    3.4799   -2.8710 O.3       1 <0>        -1.1032
     23 P2         -6.6796    3.7543   -4.0828 P.3       1 <0>         2.3442
     24 O6         -5.9685    3.4876   -5.4283 O.2       1 <0>        -1.1176
     25 O7         -7.8987    2.8147   -3.9495 O.3       1 <0>        -1.1384
     26 O8         -7.1740    5.2856   -4.0313 O.3       1 <0>        -1.1057
     27 P3         -7.9213    6.2553   -5.0769 P.3       1 <0>         2.2204
     28 O9         -7.3471    6.0147   -6.5145 O.2       1 <0>        -1.1962
     29 O10        -9.4573    5.9465   -5.0696 O.3       1 <0>        -1.2117
     30 O11        -7.6868    7.7483   -4.6640 O.3       1 <0>        -1.2133
     31 N5          3.8613   -2.8860   -0.1822 N.pl3     1 <0>        -0.8298
     32 H2         -0.8433    2.0244   -0.1335 H         1 <0>         0.2374
     33 H3         -0.8051   -1.8670    0.1279 H         1 <0>         0.1111
     34 H4         -1.6212   -0.1860   -1.9386 H         1 <0>         0.1045
     35 H5         -2.6524   -1.5109   -1.3007 H         1 <0>         0.1082
     36 H6         -4.0967    0.2721   -0.7475 H         1 <0>         0.1272
     37 H7         -3.6363    0.6166    1.7966 H         1 <0>         0.1297
     38 H8         -1.5689   -0.7288    2.3462 H         1 <0>         0.1261
     39 H9         -4.4802    2.5506   -0.1800 H         1 <0>         0.0531
     40 H10        -3.3703    3.7084   -0.9519 H         1 <0>         0.0959
     41 H11         4.8244   -2.9727   -0.2581 H         1 <0>         0.4094
     42 H12         3.3098   -3.6771   -0.0776 H         1 <0>         0.4244
@<TRIPOS>BOND
     1    1   11 1
     2    1    2 2
     3    1   32 1
     4    2    3 1
     5    3   10 2
     6    3    4 1
     7    4    5 2
     8    4    6 am
     9    6    7 1
    10    6    8 1
    11    8    9 2
    12    8   31 1
    13    9   10 1
    14   10   11 1
    15   11   12 1
    16   12   16 1
    17   12   13 1
    18   12   33 1
    19   13   14 1
    20   13   34 1
    21   13   35 1
    22   14   15 1
    23   14   17 1
    24   14   36 1
    25   15   16 2
    26   15   37 1
    27   16   38 1
    28   17   18 1
    29   18   19 1
    30   18   39 1
    31   18   40 1
    32   19   20 2
    33   19   21 1
    34   19   22 1
    35   22   23 1
    36   23   24 2
    37   23   25 1
    38   23   26 1
    39   26   27 1
    40   27   28 2
    41   27   29 1
    42   27   30 1
    43   31   41 1
    44   31   42 1
@<TRIPOS>MOLECULE
CHEMBL538904__15
   43    45     0     0     0
SMALL
USER_CHARGES

@<TRIPOS>ATOM
      1 C1          0.0430    1.4081   -0.1685 C.2       1 <0>         0.2472
      2 N1          1.2581    1.8525   -0.3045 N.2       1 <0>        -0.4378
      3 C2          2.1210    0.8074   -0.3022 C.2       1 <0>        -0.1435
      4 C3          3.5262    0.6899   -0.4136 C.2       1 <0>         0.5966
      5 O1          4.2274    1.6786   -0.5449 O.2       1 <0>        -0.5211
      6 N2          4.0723   -0.5456   -0.3704 N.am      1 <0>        -0.6575
      7 H1          5.0337   -0.6511   -0.4444 H         1 <0>         0.4115
      8 C4          3.2789   -1.6441   -0.2228 C.2       1 <0>         0.6333
      9 N3          1.9722   -1.5482   -0.1186 N.2       1 <0>        -0.5638
     10 C5          1.3611   -0.3583   -0.1525 C.2       1 <0>         0.2821
     11 N4          0.0565    0.0469   -0.0706 N.pl3     1 <0>        -0.4306
     12 C6         -1.1119   -0.8216    0.0927 C.3       1 <0>         0.1575
     13 C7         -2.1191   -0.5918   -1.0579 C.3       1 <0>        -0.1285
     14 C8         -3.0703    0.4520   -0.4279 C.3       1 <0>         0.0651
     15 C9         -2.9385    0.2414    1.0626 C.2       1 <0>        -0.1209
     16 C10        -1.8705   -0.4532    1.3465 C.2       1 <0>        -0.1941
     17 O2         -2.6622    1.7750   -0.7817 O.3       1 <0>        -0.3466
     18 C11        -3.7464    2.6856   -0.9746 C.3       1 <0>        -0.5622
     19 P1         -4.5315    2.3627   -2.5879 P.3       1 <0>         2.3135
     20 O3         -3.4614    2.4152   -3.7011 O.2       1 <0>        -1.0749
     21 O4         -5.1881    0.9643   -2.5704 O.3       1 <0>        -1.0873
     22 O5         -5.6556    3.4799   -2.8710 O.3       1 <0>        -1.1028
     23 P2         -6.6796    3.7543   -4.0828 P.3       1 <0>         2.3448
     24 O6         -5.9685    3.4876   -5.4283 O.2       1 <0>        -1.0984
     25 O7         -7.8987    2.8147   -3.9495 O.3       1 <0>        -1.1149
     26 O8         -7.1740    5.2856   -4.0313 O.3       1 <0>        -1.0980
     27 P3         -7.9213    6.2553   -5.0769 P.3       1 <0>         2.2686
     28 O9         -7.3551    6.0180   -6.4947 O.2       1 <0>        -1.1061
     29 O10        -9.4360    5.9508   -5.0697 O.3       1 <0>        -1.1202
     30 O11        -7.6804    7.7896   -4.6526 O.3       1 <0>        -0.9096
     31 N5          3.8613   -2.8860   -0.1822 N.pl3     1 <0>        -0.8281
     32 H2         -0.8433    2.0244   -0.1335 H         1 <0>         0.2353
     33 H3         -0.8051   -1.8670    0.1279 H         1 <0>         0.1129
     34 H4         -1.6212   -0.1860   -1.9386 H         1 <0>         0.1042
     35 H5         -2.6524   -1.5109   -1.3007 H         1 <0>         0.1091
     36 H6         -4.0967    0.2721   -0.7475 H         1 <0>         0.1257
     37 H7         -3.6363    0.6166    1.7966 H         1 <0>         0.1297
     38 H8         -1.5689   -0.7288    2.3462 H         1 <0>         0.1278
     39 H9         -4.4802    2.5506   -0.1800 H         1 <0>         0.0533
     40 H10        -3.3703    3.7084   -0.9519 H         1 <0>         0.0931
     41 H11        -8.1032    8.4311   -5.2398 H         1 <0>         0.3998
     42 H12         4.8244   -2.9727   -0.2581 H         1 <0>         0.4106
     43 H13         3.3098   -3.6771   -0.0776 H         1 <0>         0.4253
@<TRIPOS>BOND
     1    1   11 1
     2    1    2 2
     3    1   32 1
     4    2    3 1
     5    3   10 2
     6    3    4 1
     7    4    5 2
     8    4    6 am
     9    6    7 1
    10    6    8 1
    11    8    9 2
    12    8   31 1
    13    9   10 1
    14   10   11 1
    15   11   12 1
    16   12   16 1
    17   12   13 1
    18   12   33 1
    19   13   14 1
    20   13   34 1
    21   13   35 1
    22   14   15 1
    23   14   17 1
    24   14   36 1
    25   15   16 2
    26   15   37 1
    27   16   38 1
    28   17   18 1
    29   18   19 1
    30   18   39 1
    31   18   40 1
    32   19   20 2
    33   19   21 1
    34   19   22 1
    35   22   23 1
    36   23   24 2
    37   23   25 1
    38   23   26 1
    39   26   27 1
    40   27   28 2
    41   27   29 1
    42   27   30 1
    43   30   41 1
    44   31   42 1
    45   31   43 1
@<TRIPOS>MOLECULE
CHEMBL538904__16
   42    44     0     0     0
SMALL
USER_CHARGES

@<TRIPOS>ATOM
      1 C1         -0.0164    1.3606    0.0095 C.2       1 <0>         0.2278
      2 N1          1.2014    1.8181    0.0004 N.2       1 <0>        -0.4359
      3 C2          2.0711    0.7788   -0.0135 C.2       1 <0>        -0.1535
      4 C3          3.4818    0.6749   -0.0276 C.2       1 <0>         0.5999
      5 O1          4.1818    1.6731   -0.0285 O.2       1 <0>        -0.5286
      6 N2          4.0343   -0.5584   -0.0395 N.am      1 <0>        -0.6583
      7 H1          4.9994   -0.6547   -0.0489 H         1 <0>         0.4118
      8 C4          3.2421   -1.6676   -0.0379 C.2       1 <0>         0.6397
      9 N3          1.9305   -1.5844   -0.0253 N.2       1 <0>        -0.5620
     10 C5          1.3128   -0.3975   -0.0126 C.2       1 <0>         0.3010
     11 N4          0.0021   -0.0041    0.0020 N.pl3     1 <0>        -0.4289
     12 C6         -1.1673   -0.8865    0.0089 C.3       1 <0>         0.1606
     13 C7         -2.0642   -0.5827    1.2314 C.3       1 <0>        -0.1190
     14 C8         -3.4756   -0.7888    0.6341 C.3       1 <0>         0.0638
     15 C9         -3.3031   -0.5542   -0.8486 C.2       1 <0>        -0.1125
     16 C10        -2.0443   -0.6075   -1.1896 C.2       1 <0>        -0.2144
     17 O2         -4.3924    0.1591    1.1847 O.3       1 <0>        -0.3471
     18 C11        -5.7392   -0.3122    1.2620 C.3       1 <0>        -0.5650
     19 P1         -5.8901   -1.4979    2.6385 P.3       1 <0>         2.3200
     20 O3         -4.9398   -2.6918    2.3964 O.2       1 <0>        -1.0838
     21 O4         -5.5121   -0.7993    3.9637 O.3       1 <0>        -1.0910
     22 O5         -7.4075   -2.0289    2.7255 O.3       1 <0>        -1.1028
     23 P2         -8.1773   -3.0616    3.6914 P.3       1 <0>         2.3432
     24 O6         -7.2644   -4.2739    3.9813 O.2       1 <0>        -1.1172
     25 O7         -8.5344   -2.3567    5.0190 O.3       1 <0>        -1.1374
     26 O8         -9.5264   -3.5657    2.9717 O.3       1 <0>        -1.1057
     27 P3        -10.5487   -4.7809    3.2371 P.3       1 <0>         2.2205
     28 O9         -9.7425   -6.0642    3.6340 O.2       1 <0>        -1.1964
     29 O10       -11.5253   -4.3971    4.4004 O.3       1 <0>        -1.2114
     30 O11       -11.3729   -5.0638    1.9351 O.3       1 <0>        -1.2136
     31 N5          3.8310   -2.9070   -0.0502 N.pl3     1 <0>        -0.8245
     32 H2         -0.9084    1.9694    0.0254 H         1 <0>         0.2198
     33 H3         -0.8543   -1.9305    0.0155 H         1 <0>         0.1254
     34 H4         -1.8749   -1.2882    2.0405 H         1 <0>         0.1075
     35 H5         -1.9289    0.4443    1.5704 H         1 <0>         0.0876
     36 H6         -3.8218   -1.8054    0.8200 H         1 <0>         0.1414
     37 H7         -4.1149   -0.3674   -1.5360 H         1 <0>         0.1286
     38 H8         -1.6777   -0.4699   -2.1961 H         1 <0>         0.1259
     39 H9         -6.4096    0.5300    1.4328 H         1 <0>         0.0926
     40 H10        -6.0058   -0.8051    0.3270 H         1 <0>         0.0514
     41 H11         4.7979   -2.9845   -0.0598 H         1 <0>         0.4108
     42 H12         3.2805   -3.7056   -0.0492 H         1 <0>         0.4299
@<TRIPOS>BOND
     1    1   11 1
     2    1    2 2
     3    1   32 1
     4    2    3 1
     5    3   10 2
     6    3    4 1
     7    4    5 2
     8    4    6 am
     9    6    7 1
    10    6    8 1
    11    8    9 2
    12    8   31 1
    13    9   10 1
    14   10   11 1
    15   11   12 1
    16   12   16 1
    17   12   13 1
    18   12   33 1
    19   13   14 1
    20   13   34 1
    21   13   35 1
    22   14   15 1
    23   14   17 1
    24   14   36 1
    25   15   16 2
    26   15   37 1
    27   16   38 1
    28   17   18 1
    29   18   19 1
    30   18   39 1
    31   18   40 1
    32   19   20 2
    33   19   21 1
    34   19   22 1
    35   22   23 1
    36   23   24 2
    37   23   25 1
    38   23   26 1
    39   26   27 1
    40   27   28 2
    41   27   29 1
    42   27   30 1
    43   31   41 1
    44   31   42 1
@<TRIPOS>MOLECULE
CHEMBL538904__17
   43    45     0     0     0
SMALL
USER_CHARGES

@<TRIPOS>ATOM
      1 C1         -0.0164    1.3606    0.0095 C.2       1 <0>         0.2253
      2 N1          1.2014    1.8181    0.0004 N.2       1 <0>        -0.4332
      3 C2          2.0711    0.7788   -0.0135 C.2       1 <0>        -0.1525
      4 C3          3.4818    0.6749   -0.0276 C.2       1 <0>         0.5992
      5 O1          4.1818    1.6731   -0.0285 O.2       1 <0>        -0.5249
      6 N2          4.0343   -0.5584   -0.0395 N.am      1 <0>        -0.6582
      7 H1          4.9994   -0.6547   -0.0489 H         1 <0>         0.4131
      8 C4          3.2421   -1.6676   -0.0379 C.2       1 <0>         0.6426
      9 N3          1.9305   -1.5844   -0.0253 N.2       1 <0>        -0.5653
     10 C5          1.3128   -0.3975   -0.0126 C.2       1 <0>         0.3023
     11 N4          0.0021   -0.0041    0.0020 N.pl3     1 <0>        -0.4317
     12 C6         -1.1673   -0.8865    0.0089 C.3       1 <0>         0.1609
     13 C7         -2.0642   -0.5827    1.2314 C.3       1 <0>        -0.1201
     14 C8         -3.4756   -0.7888    0.6341 C.3       1 <0>         0.0664
     15 C9         -3.3031   -0.5542   -0.8486 C.2       1 <0>        -0.1205
     16 C10        -2.0443   -0.6075   -1.1896 C.2       1 <0>        -0.2066
     17 O2         -4.3924    0.1591    1.1847 O.3       1 <0>        -0.3452
     18 C11        -5.7392   -0.3122    1.2620 C.3       1 <0>        -0.5624
     19 P1         -5.8901   -1.4979    2.6385 P.3       1 <0>         2.3150
     20 O3         -4.9398   -2.6918    2.3964 O.2       1 <0>        -1.0787
     21 O4         -5.5121   -0.7993    3.9637 O.3       1 <0>        -1.0836
     22 O5         -7.4075   -2.0289    2.7255 O.3       1 <0>        -1.1024
     23 P2         -8.1773   -3.0616    3.6914 P.3       1 <0>         2.3437
     24 O6         -7.2644   -4.2739    3.9813 O.2       1 <0>        -1.0979
     25 O7         -8.5344   -2.3567    5.0190 O.3       1 <0>        -1.1138
     26 O8         -9.5264   -3.5657    2.9717 O.3       1 <0>        -1.0980
     27 P3        -10.5487   -4.7809    3.2371 P.3       1 <0>         2.2682
     28 O9         -9.7536   -6.0465    3.6285 O.2       1 <0>        -1.1061
     29 O10       -11.5118   -4.4025    4.3843 O.3       1 <0>        -1.1197
     30 O11       -11.3957   -5.0716    1.8991 O.3       1 <0>        -0.9099
     31 N5          3.8310   -2.9070   -0.0502 N.pl3     1 <0>        -0.8236
     32 H2         -0.9084    1.9694    0.0254 H         1 <0>         0.2193
     33 H3         -0.8543   -1.9305    0.0155 H         1 <0>         0.1256
     34 H4         -1.8749   -1.2882    2.0405 H         1 <0>         0.1074
     35 H5         -1.9289    0.4443    1.5704 H         1 <0>         0.0889
     36 H6         -3.8218   -1.8054    0.8200 H         1 <0>         0.1384
     37 H7         -4.1149   -0.3674   -1.5360 H         1 <0>         0.1278
     38 H8         -1.6777   -0.4699   -2.1961 H         1 <0>         0.1273
     39 H9         -6.4096    0.5300    1.4328 H         1 <0>         0.0922
     40 H10        -6.0058   -0.8051    0.3270 H         1 <0>         0.0493
     41 H11       -12.0332   -5.7935    1.9863 H         1 <0>         0.3998
     42 H12         4.7979   -2.9845   -0.0598 H         1 <0>         0.4119
     43 H13         3.2805   -3.7056   -0.0492 H         1 <0>         0.4296
@<TRIPOS>BOND
     1    1   11 1
     2    1    2 2
     3    1   32 1
     4    2    3 1
     5    3   10 2
     6    3    4 1
     7    4    5 2
     8    4    6 am
     9    6    7 1
    10    6    8 1
    11    8    9 2
    12    8   31 1
    13    9   10 1
    14   10   11 1
    15   11   12 1
    16   12   16 1
    17   12   13 1
    18   12   33 1
    19   13   14 1
    20   13   34 1
    21   13   35 1
    22   14   15 1
    23   14   17 1
    24   14   36 1
    25   15   16 2
    26   15   37 1
    27   16   38 1
    28   17   18 1
    29   18   19 1
    30   18   39 1
    31   18   40 1
    32   19   20 2
    33   19   21 1
    34   19   22 1
    35   22   23 1
    36   23   24 2
    37   23   25 1
    38   23   26 1
    39   26   27 1
    40   27   28 2
    41   27   29 1
    42   27   30 1
    43   30   41 1
    44   31   42 1
    45   31   43 1
@<TRIPOS>MOLECULE
CHEMBL538904__18
   42    44     0     0     0
SMALL
USER_CHARGES

@<TRIPOS>ATOM
      1 C1         -0.0164    1.3606    0.0095 C.2       1 <0>         0.2278
      2 N1          1.2014    1.8181    0.0004 N.2       1 <0>        -0.4359
      3 C2          2.0711    0.7788   -0.0135 C.2       1 <0>        -0.1535
      4 C3          3.4818    0.6749   -0.0276 C.2       1 <0>         0.5999
      5 O1          4.1818    1.6731   -0.0285 O.2       1 <0>        -0.5286
      6 N2          4.0343   -0.5584   -0.0395 N.am      1 <0>        -0.6583
      7 H1          4.9994   -0.6547   -0.0489 H         1 <0>         0.4118
      8 C4          3.2421   -1.6676   -0.0379 C.2       1 <0>         0.6397
      9 N3          1.9305   -1.5844   -0.0253 N.2       1 <0>        -0.5620
     10 C5          1.3128   -0.3975   -0.0126 C.2       1 <0>         0.3010
     11 N4          0.0021   -0.0041    0.0020 N.pl3     1 <0>        -0.4289
     12 C6         -1.1673   -0.8865    0.0089 C.3       1 <0>         0.1606
     13 C7         -2.0642   -0.5827    1.2314 C.3       1 <0>        -0.1190
     14 C8         -3.4756   -0.7888    0.6341 C.3       1 <0>         0.0638
     15 C9         -3.3031   -0.5542   -0.8486 C.2       1 <0>        -0.1125
     16 C10        -2.0443   -0.6075   -1.1896 C.2       1 <0>        -0.2144
     17 O2         -4.3924    0.1591    1.1847 O.3       1 <0>        -0.3471
     18 C11        -5.7392   -0.3122    1.2620 C.3       1 <0>        -0.5650
     19 P1         -5.8901   -1.4979    2.6385 P.3       1 <0>         2.3200
     20 O3         -4.9398   -2.6918    2.3964 O.2       1 <0>        -1.0838
     21 O4         -5.5121   -0.7993    3.9637 O.3       1 <0>        -1.0910
     22 O5         -7.4075   -2.0289    2.7255 O.3       1 <0>        -1.1028
     23 P2         -8.1773   -3.0616    3.6914 P.3       1 <0>         2.3432
     24 O6         -7.2644   -4.2739    3.9813 O.2       1 <0>        -1.1172
     25 O7         -8.5344   -2.3567    5.0190 O.3       1 <0>        -1.1374
     26 O8         -9.5264   -3.5657    2.9717 O.3       1 <0>        -1.1057
     27 P3        -10.5487   -4.7809    3.2371 P.3       1 <0>         2.2205
     28 O9         -9.7425   -6.0642    3.6340 O.2       1 <0>        -1.1964
     29 O10       -11.5253   -4.3971    4.4004 O.3       1 <0>        -1.2114
     30 O11       -11.3729   -5.0638    1.9351 O.3       1 <0>        -1.2136
     31 N5          3.8310   -2.9070   -0.0502 N.pl3     1 <0>        -0.8245
     32 H2         -0.9084    1.9694    0.0254 H         1 <0>         0.2198
     33 H3         -0.8543   -1.9305    0.0155 H         1 <0>         0.1254
     34 H4         -1.8749   -1.2882    2.0405 H         1 <0>         0.1075
     35 H5         -1.9289    0.4443    1.5704 H         1 <0>         0.0876
     36 H6         -3.8218   -1.8054    0.8200 H         1 <0>         0.1414
     37 H7         -4.1149   -0.3674   -1.5360 H         1 <0>         0.1286
     38 H8         -1.6777   -0.4699   -2.1961 H         1 <0>         0.1259
     39 H9         -6.4096    0.5300    1.4328 H         1 <0>         0.0926
     40 H10        -6.0058   -0.8051    0.3270 H         1 <0>         0.0514
     41 H11         4.7979   -2.9845   -0.0598 H         1 <0>         0.4108
     42 H12         3.2805   -3.7056   -0.0492 H         1 <0>         0.4299
@<TRIPOS>BOND
     1    1   11 1
     2    1    2 2
     3    1   32 1
     4    2    3 1
     5    3   10 2
     6    3    4 1
     7    4    5 2
     8    4    6 am
     9    6    7 1
    10    6    8 1
    11    8    9 2
    12    8   31 1
    13    9   10 1
    14   10   11 1
    15   11   12 1
    16   12   16 1
    17   12   13 1
    18   12   33 1
    19   13   14 1
    20   13   34 1
    21   13   35 1
    22   14   15 1
    23   14   17 1
    24   14   36 1
    25   15   16 2
    26   15   37 1
    27   16   38 1
    28   17   18 1
    29   18   19 1
    30   18   39 1
    31   18   40 1
    32   19   20 2
    33   19   21 1
    34   19   22 1
    35   22   23 1
    36   23   24 2
    37   23   25 1
    38   23   26 1
    39   26   27 1
    40   27   28 2
    41   27   29 1
    42   27   30 1
    43   31   41 1
    44   31   42 1
@<TRIPOS>MOLECULE
CHEMBL538904__19
   43    45     0     0     0
SMALL
USER_CHARGES

@<TRIPOS>ATOM
      1 C1         -0.0164    1.3606    0.0095 C.2       1 <0>         0.2253
      2 N1          1.2014    1.8181    0.0004 N.2       1 <0>        -0.4332
      3 C2          2.0711    0.7788   -0.0135 C.2       1 <0>        -0.1525
      4 C3          3.4818    0.6749   -0.0276 C.2       1 <0>         0.5992
      5 O1          4.1818    1.6731   -0.0285 O.2       1 <0>        -0.5249
      6 N2          4.0343   -0.5584   -0.0395 N.am      1 <0>        -0.6582
      7 H1          4.9994   -0.6547   -0.0489 H         1 <0>         0.4131
      8 C4          3.2421   -1.6676   -0.0379 C.2       1 <0>         0.6426
      9 N3          1.9305   -1.5844   -0.0253 N.2       1 <0>        -0.5653
     10 C5          1.3128   -0.3975   -0.0126 C.2       1 <0>         0.3023
     11 N4          0.0021   -0.0041    0.0020 N.pl3     1 <0>        -0.4317
     12 C6         -1.1673   -0.8865    0.0089 C.3       1 <0>         0.1609
     13 C7         -2.0642   -0.5827    1.2314 C.3       1 <0>        -0.1201
     14 C8         -3.4756   -0.7888    0.6341 C.3       1 <0>         0.0664
     15 C9         -3.3031   -0.5542   -0.8486 C.2       1 <0>        -0.1205
     16 C10        -2.0443   -0.6075   -1.1896 C.2       1 <0>        -0.2066
     17 O2         -4.3924    0.1591    1.1847 O.3       1 <0>        -0.3452
     18 C11        -5.7392   -0.3122    1.2620 C.3       1 <0>        -0.5624
     19 P1         -5.8901   -1.4979    2.6385 P.3       1 <0>         2.3150
     20 O3         -4.9398   -2.6918    2.3964 O.2       1 <0>        -1.0787
     21 O4         -5.5121   -0.7993    3.9637 O.3       1 <0>        -1.0836
     22 O5         -7.4075   -2.0289    2.7255 O.3       1 <0>        -1.1024
     23 P2         -8.1773   -3.0616    3.6914 P.3       1 <0>         2.3437
     24 O6         -7.2644   -4.2739    3.9813 O.2       1 <0>        -1.0979
     25 O7         -8.5344   -2.3567    5.0190 O.3       1 <0>        -1.1138
     26 O8         -9.5264   -3.5657    2.9717 O.3       1 <0>        -1.0980
     27 P3        -10.5487   -4.7809    3.2371 P.3       1 <0>         2.2682
     28 O9         -9.7536   -6.0465    3.6285 O.2       1 <0>        -1.1061
     29 O10       -11.5118   -4.4025    4.3843 O.3       1 <0>        -1.1197
     30 O11       -11.3957   -5.0716    1.8991 O.3       1 <0>        -0.9099
     31 N5          3.8310   -2.9070   -0.0502 N.pl3     1 <0>        -0.8236
     32 H2         -0.9084    1.9694    0.0254 H         1 <0>         0.2193
     33 H3         -0.8543   -1.9305    0.0155 H         1 <0>         0.1256
     34 H4         -1.8749   -1.2882    2.0405 H         1 <0>         0.1074
     35 H5         -1.9289    0.4443    1.5704 H         1 <0>         0.0889
     36 H6         -3.8218   -1.8054    0.8200 H         1 <0>         0.1384
     37 H7         -4.1149   -0.3674   -1.5360 H         1 <0>         0.1278
     38 H8         -1.6777   -0.4699   -2.1961 H         1 <0>         0.1273
     39 H9         -6.4096    0.5300    1.4328 H         1 <0>         0.0922
     40 H10        -6.0058   -0.8051    0.3270 H         1 <0>         0.0493
     41 H11       -12.0332   -5.7935    1.9863 H         1 <0>         0.3998
     42 H12         4.7979   -2.9845   -0.0598 H         1 <0>         0.4119
     43 H13         3.2805   -3.7056   -0.0492 H         1 <0>         0.4296
@<TRIPOS>BOND
     1    1   11 1
     2    1    2 2
     3    1   32 1
     4    2    3 1
     5    3   10 2
     6    3    4 1
     7    4    5 2
     8    4    6 am
     9    6    7 1
    10    6    8 1
    11    8    9 2
    12    8   31 1
    13    9   10 1
    14   10   11 1
    15   11   12 1
    16   12   16 1
    17   12   13 1
    18   12   33 1
    19   13   14 1
    20   13   34 1
    21   13   35 1
    22   14   15 1
    23   14   17 1
    24   14   36 1
    25   15   16 2
    26   15   37 1
    27   16   38 1
    28   17   18 1
    29   18   19 1
    30   18   39 1
    31   18   40 1
    32   19   20 2
    33   19   21 1
    34   19   22 1
    35   22   23 1
    36   23   24 2
    37   23   25 1
    38   23   26 1
    39   26   27 1
    40   27   28 2
    41   27   29 1
    42   27   30 1
    43   30   41 1
    44   31   42 1
    45   31   43 1
@<TRIPOS>MOLECULE
CHEMBL538904__20
   42    44     0     0     0
SMALL
USER_CHARGES

@<TRIPOS>ATOM
      1 C1         -0.0164    1.3606    0.0095 C.2       1 <0>         0.2278
      2 N1          1.2014    1.8181    0.0004 N.2       1 <0>        -0.4359
      3 C2          2.0711    0.7788   -0.0135 C.2       1 <0>        -0.1535
      4 C3          3.4818    0.6749   -0.0276 C.2       1 <0>         0.5999
      5 O1          4.1818    1.6731   -0.0285 O.2       1 <0>        -0.5286
      6 N2          4.0343   -0.5584   -0.0395 N.am      1 <0>        -0.6583
      7 H1          4.9994   -0.6547   -0.0489 H         1 <0>         0.4118
      8 C4          3.2421   -1.6676   -0.0379 C.2       1 <0>         0.6397
      9 N3          1.9305   -1.5844   -0.0253 N.2       1 <0>        -0.5620
     10 C5          1.3128   -0.3975   -0.0126 C.2       1 <0>         0.3010
     11 N4          0.0021   -0.0041    0.0020 N.pl3     1 <0>        -0.4289
     12 C6         -1.1673   -0.8865    0.0089 C.3       1 <0>         0.1606
     13 C7         -2.0642   -0.5827    1.2314 C.3       1 <0>        -0.1190
     14 C8         -3.4756   -0.7888    0.6341 C.3       1 <0>         0.0638
     15 C9         -3.3031   -0.5542   -0.8486 C.2       1 <0>        -0.1125
     16 C10        -2.0443   -0.6075   -1.1896 C.2       1 <0>        -0.2144
     17 O2         -4.3924    0.1591    1.1847 O.3       1 <0>        -0.3471
     18 C11        -5.7392   -0.3122    1.2620 C.3       1 <0>        -0.5650
     19 P1         -5.8901   -1.4979    2.6385 P.3       1 <0>         2.3200
     20 O3         -4.9398   -2.6918    2.3964 O.2       1 <0>        -1.0838
     21 O4         -5.5121   -0.7993    3.9637 O.3       1 <0>        -1.0910
     22 O5         -7.4075   -2.0289    2.7255 O.3       1 <0>        -1.1028
     23 P2         -8.1773   -3.0616    3.6914 P.3       1 <0>         2.3432
     24 O6         -7.2644   -4.2739    3.9813 O.2       1 <0>        -1.1172
     25 O7         -8.5344   -2.3567    5.0190 O.3       1 <0>        -1.1374
     26 O8         -9.5264   -3.5657    2.9717 O.3       1 <0>        -1.1057
     27 P3        -10.5487   -4.7809    3.2371 P.3       1 <0>         2.2205
     28 O9         -9.7425   -6.0642    3.6340 O.2       1 <0>        -1.1964
     29 O10       -11.5253   -4.3971    4.4004 O.3       1 <0>        -1.2114
     30 O11       -11.3729   -5.0638    1.9351 O.3       1 <0>        -1.2136
     31 N5          3.8310   -2.9070   -0.0502 N.pl3     1 <0>        -0.8245
     32 H2         -0.9084    1.9694    0.0254 H         1 <0>         0.2198
     33 H3         -0.8543   -1.9305    0.0155 H         1 <0>         0.1254
     34 H4         -1.8749   -1.2882    2.0405 H         1 <0>         0.1075
     35 H5         -1.9289    0.4443    1.5704 H         1 <0>         0.0876
     36 H6         -3.8218   -1.8054    0.8200 H         1 <0>         0.1414
     37 H7         -4.1149   -0.3674   -1.5360 H         1 <0>         0.1286
     38 H8         -1.6777   -0.4699   -2.1961 H         1 <0>         0.1259
     39 H9         -6.4096    0.5300    1.4328 H         1 <0>         0.0926
     40 H10        -6.0058   -0.8051    0.3270 H         1 <0>         0.0514
     41 H11         4.7979   -2.9845   -0.0598 H         1 <0>         0.4108
     42 H12         3.2805   -3.7056   -0.0492 H         1 <0>         0.4299
@<TRIPOS>BOND
     1    1   11 1
     2    1    2 2
     3    1   32 1
     4    2    3 1
     5    3   10 2
     6    3    4 1
     7    4    5 2
     8    4    6 am
     9    6    7 1
    10    6    8 1
    11    8    9 2
    12    8   31 1
    13    9   10 1
    14   10   11 1
    15   11   12 1
    16   12   16 1
    17   12   13 1
    18   12   33 1
    19   13   14 1
    20   13   34 1
    21   13   35 1
    22   14   15 1
    23   14   17 1
    24   14   36 1
    25   15   16 2
    26   15   37 1
    27   16   38 1
    28   17   18 1
    29   18   19 1
    30   18   39 1
    31   18   40 1
    32   19   20 2
    33   19   21 1
    34   19   22 1
    35   22   23 1
    36   23   24 2
    37   23   25 1
    38   23   26 1
    39   26   27 1
    40   27   28 2
    41   27   29 1
    42   27   30 1
    43   31   41 1
    44   31   42 1
@<TRIPOS>MOLECULE
CHEMBL538904__21
   43    45     0     0     0
SMALL
USER_CHARGES

@<TRIPOS>ATOM
      1 C1         -0.0164    1.3606    0.0095 C.2       1 <0>         0.2253
      2 N1          1.2014    1.8181    0.0004 N.2       1 <0>        -0.4332
      3 C2          2.0711    0.7788   -0.0135 C.2       1 <0>        -0.1525
      4 C3          3.4818    0.6749   -0.0276 C.2       1 <0>         0.5992
      5 O1          4.1818    1.6731   -0.0285 O.2       1 <0>        -0.5249
      6 N2          4.0343   -0.5584   -0.0395 N.am      1 <0>        -0.6582
      7 H1          4.9994   -0.6547   -0.0489 H         1 <0>         0.4131
      8 C4          3.2421   -1.6676   -0.0379 C.2       1 <0>         0.6426
      9 N3          1.9305   -1.5844   -0.0253 N.2       1 <0>        -0.5653
     10 C5          1.3128   -0.3975   -0.0126 C.2       1 <0>         0.3023
     11 N4          0.0021   -0.0041    0.0020 N.pl3     1 <0>        -0.4317
     12 C6         -1.1673   -0.8865    0.0089 C.3       1 <0>         0.1609
     13 C7         -2.0642   -0.5827    1.2314 C.3       1 <0>        -0.1201
     14 C8         -3.4756   -0.7888    0.6341 C.3       1 <0>         0.0664
     15 C9         -3.3031   -0.5542   -0.8486 C.2       1 <0>        -0.1205
     16 C10        -2.0443   -0.6075   -1.1896 C.2       1 <0>        -0.2066
     17 O2         -4.3924    0.1591    1.1847 O.3       1 <0>        -0.3452
     18 C11        -5.7392   -0.3122    1.2620 C.3       1 <0>        -0.5624
     19 P1         -5.8901   -1.4979    2.6385 P.3       1 <0>         2.3150
     20 O3         -4.9398   -2.6918    2.3964 O.2       1 <0>        -1.0787
     21 O4         -5.5121   -0.7993    3.9637 O.3       1 <0>        -1.0836
     22 O5         -7.4075   -2.0289    2.7255 O.3       1 <0>        -1.1024
     23 P2         -8.1773   -3.0616    3.6914 P.3       1 <0>         2.3437
     24 O6         -7.2644   -4.2739    3.9813 O.2       1 <0>        -1.0979
     25 O7         -8.5344   -2.3567    5.0190 O.3       1 <0>        -1.1138
     26 O8         -9.5264   -3.5657    2.9717 O.3       1 <0>        -1.0980
     27 P3        -10.5487   -4.7809    3.2371 P.3       1 <0>         2.2682
     28 O9         -9.7536   -6.0465    3.6285 O.2       1 <0>        -1.1061
     29 O10       -11.5118   -4.4025    4.3843 O.3       1 <0>        -1.1197
     30 O11       -11.3957   -5.0716    1.8991 O.3       1 <0>        -0.9099
     31 N5          3.8310   -2.9070   -0.0502 N.pl3     1 <0>        -0.8236
     32 H2         -0.9084    1.9694    0.0254 H         1 <0>         0.2193
     33 H3         -0.8543   -1.9305    0.0155 H         1 <0>         0.1256
     34 H4         -1.8749   -1.2882    2.0405 H         1 <0>         0.1074
     35 H5         -1.9289    0.4443    1.5704 H         1 <0>         0.0889
     36 H6         -3.8218   -1.8054    0.8200 H         1 <0>         0.1384
     37 H7         -4.1149   -0.3674   -1.5360 H         1 <0>         0.1278
     38 H8         -1.6777   -0.4699   -2.1961 H         1 <0>         0.1273
     39 H9         -6.4096    0.5300    1.4328 H         1 <0>         0.0922
     40 H10        -6.0058   -0.8051    0.3270 H         1 <0>         0.0493
     41 H11       -12.0332   -5.7935    1.9863 H         1 <0>         0.3998
     42 H12         4.7979   -2.9845   -0.0598 H         1 <0>         0.4119
     43 H13         3.2805   -3.7056   -0.0492 H         1 <0>         0.4296
@<TRIPOS>BOND
     1    1   11 1
     2    1    2 2
     3    1   32 1
     4    2    3 1
     5    3   10 2
     6    3    4 1
     7    4    5 2
     8    4    6 am
     9    6    7 1
    10    6    8 1
    11    8    9 2
    12    8   31 1
    13    9   10 1
    14   10   11 1
    15   11   12 1
    16   12   16 1
    17   12   13 1
    18   12   33 1
    19   13   14 1
    20   13   34 1
    21   13   35 1
    22   14   15 1
    23   14   17 1
    24   14   36 1
    25   15   16 2
    26   15   37 1
    27   16   38 1
    28   17   18 1
    29   18   19 1
    30   18   39 1
    31   18   40 1
    32   19   20 2
    33   19   21 1
    34   19   22 1
    35   22   23 1
    36   23   24 2
    37   23   25 1
    38   23   26 1
    39   26   27 1
    40   27   28 2
    41   27   29 1
    42   27   30 1
    43   30   41 1
    44   31   42 1
    45   31   43 1
@<TRIPOS>MOLECULE
CHEMBL538904__22
   42    44     0     0     0
SMALL
USER_CHARGES

@<TRIPOS>ATOM
      1 C1         -0.0164    1.3606    0.0095 C.2       1 <0>         0.2278
      2 N1          1.2014    1.8181    0.0004 N.2       1 <0>        -0.4359
      3 C2          2.0711    0.7788   -0.0135 C.2       1 <0>        -0.1535
      4 C3          3.4818    0.6749   -0.0276 C.2       1 <0>         0.5999
      5 O1          4.1818    1.6731   -0.0285 O.2       1 <0>        -0.5286
      6 N2          4.0343   -0.5584   -0.0395 N.am      1 <0>        -0.6583
      7 H1          4.9994   -0.6547   -0.0489 H         1 <0>         0.4118
      8 C4          3.2421   -1.6676   -0.0379 C.2       1 <0>         0.6397
      9 N3          1.9305   -1.5844   -0.0253 N.2       1 <0>        -0.5620
     10 C5          1.3128   -0.3975   -0.0126 C.2       1 <0>         0.3010
     11 N4          0.0021   -0.0041    0.0020 N.pl3     1 <0>        -0.4289
     12 C6         -1.1673   -0.8865    0.0089 C.3       1 <0>         0.1606
     13 C7         -2.0642   -0.5827    1.2314 C.3       1 <0>        -0.1190
     14 C8         -3.4756   -0.7888    0.6341 C.3       1 <0>         0.0638
     15 C9         -3.3031   -0.5542   -0.8486 C.2       1 <0>        -0.1125
     16 C10        -2.0443   -0.6075   -1.1896 C.2       1 <0>        -0.2144
     17 O2         -4.3924    0.1591    1.1847 O.3       1 <0>        -0.3471
     18 C11        -5.7392   -0.3122    1.2620 C.3       1 <0>        -0.5650
     19 P1         -5.8901   -1.4979    2.6385 P.3       1 <0>         2.3200
     20 O3         -4.9398   -2.6918    2.3964 O.2       1 <0>        -1.0838
     21 O4         -5.5121   -0.7993    3.9637 O.3       1 <0>        -1.0910
     22 O5         -7.4075   -2.0289    2.7255 O.3       1 <0>        -1.1028
     23 P2         -8.1773   -3.0616    3.6914 P.3       1 <0>         2.3432
     24 O6         -7.2644   -4.2739    3.9813 O.2       1 <0>        -1.1172
     25 O7         -8.5344   -2.3567    5.0190 O.3       1 <0>        -1.1374
     26 O8         -9.5264   -3.5657    2.9717 O.3       1 <0>        -1.1057
     27 P3        -10.5487   -4.7809    3.2371 P.3       1 <0>         2.2205
     28 O9         -9.7425   -6.0642    3.6340 O.2       1 <0>        -1.1964
     29 O10       -11.5253   -4.3971    4.4004 O.3       1 <0>        -1.2114
     30 O11       -11.3729   -5.0638    1.9351 O.3       1 <0>        -1.2136
     31 N5          3.8310   -2.9070   -0.0502 N.pl3     1 <0>        -0.8245
     32 H2         -0.9084    1.9694    0.0254 H         1 <0>         0.2198
     33 H3         -0.8543   -1.9305    0.0155 H         1 <0>         0.1254
     34 H4         -1.8749   -1.2882    2.0405 H         1 <0>         0.1075
     35 H5         -1.9289    0.4443    1.5704 H         1 <0>         0.0876
     36 H6         -3.8218   -1.8054    0.8200 H         1 <0>         0.1414
     37 H7         -4.1149   -0.3674   -1.5360 H         1 <0>         0.1286
     38 H8         -1.6777   -0.4699   -2.1961 H         1 <0>         0.1259
     39 H9         -6.4096    0.5300    1.4328 H         1 <0>         0.0926
     40 H10        -6.0058   -0.8051    0.3270 H         1 <0>         0.0514
     41 H11         4.7979   -2.9845   -0.0598 H         1 <0>         0.4108
     42 H12         3.2805   -3.7056   -0.0492 H         1 <0>         0.4299
@<TRIPOS>BOND
     1    1   11 1
     2    1    2 2
     3    1   32 1
     4    2    3 1
     5    3   10 2
     6    3    4 1
     7    4    5 2
     8    4    6 am
     9    6    7 1
    10    6    8 1
    11    8    9 2
    12    8   31 1
    13    9   10 1
    14   10   11 1
    15   11   12 1
    16   12   16 1
    17   12   13 1
    18   12   33 1
    19   13   14 1
    20   13   34 1
    21   13   35 1
    22   14   15 1
    23   14   17 1
    24   14   36 1
    25   15   16 2
    26   15   37 1
    27   16   38 1
    28   17   18 1
    29   18   19 1
    30   18   39 1
    31   18   40 1
    32   19   20 2
    33   19   21 1
    34   19   22 1
    35   22   23 1
    36   23   24 2
    37   23   25 1
    38   23   26 1
    39   26   27 1
    40   27   28 2
    41   27   29 1
    42   27   30 1
    43   31   41 1
    44   31   42 1
@<TRIPOS>MOLECULE
CHEMBL538904__23
   43    45     0     0     0
SMALL
USER_CHARGES

@<TRIPOS>ATOM
      1 C1         -0.0164    1.3606    0.0095 C.2       1 <0>         0.2253
      2 N1          1.2014    1.8181    0.0004 N.2       1 <0>        -0.4332
      3 C2          2.0711    0.7788   -0.0135 C.2       1 <0>        -0.1525
      4 C3          3.4818    0.6749   -0.0276 C.2       1 <0>         0.5992
      5 O1          4.1818    1.6731   -0.0285 O.2       1 <0>        -0.5249
      6 N2          4.0343   -0.5584   -0.0395 N.am      1 <0>        -0.6582
      7 H1          4.9994   -0.6547   -0.0489 H         1 <0>         0.4131
      8 C4          3.2421   -1.6676   -0.0379 C.2       1 <0>         0.6426
      9 N3          1.9305   -1.5844   -0.0253 N.2       1 <0>        -0.5653
     10 C5          1.3128   -0.3975   -0.0126 C.2       1 <0>         0.3023
     11 N4          0.0021   -0.0041    0.0020 N.pl3     1 <0>        -0.4317
     12 C6         -1.1673   -0.8865    0.0089 C.3       1 <0>         0.1609
     13 C7         -2.0642   -0.5827    1.2314 C.3       1 <0>        -0.1201
     14 C8         -3.4756   -0.7888    0.6341 C.3       1 <0>         0.0664
     15 C9         -3.3031   -0.5542   -0.8486 C.2       1 <0>        -0.1205
     16 C10        -2.0443   -0.6075   -1.1896 C.2       1 <0>        -0.2066
     17 O2         -4.3924    0.1591    1.1847 O.3       1 <0>        -0.3452
     18 C11        -5.7392   -0.3122    1.2620 C.3       1 <0>        -0.5624
     19 P1         -5.8901   -1.4979    2.6385 P.3       1 <0>         2.3150
     20 O3         -4.9398   -2.6918    2.3964 O.2       1 <0>        -1.0787
     21 O4         -5.5121   -0.7993    3.9637 O.3       1 <0>        -1.0836
     22 O5         -7.4075   -2.0289    2.7255 O.3       1 <0>        -1.1024
     23 P2         -8.1773   -3.0616    3.6914 P.3       1 <0>         2.3437
     24 O6         -7.2644   -4.2739    3.9813 O.2       1 <0>        -1.0979
     25 O7         -8.5344   -2.3567    5.0190 O.3       1 <0>        -1.1138
     26 O8         -9.5264   -3.5657    2.9717 O.3       1 <0>        -1.0980
     27 P3        -10.5487   -4.7809    3.2371 P.3       1 <0>         2.2682
     28 O9         -9.7536   -6.0465    3.6285 O.2       1 <0>        -1.1061
     29 O10       -11.5118   -4.4025    4.3843 O.3       1 <0>        -1.1197
     30 O11       -11.3957   -5.0716    1.8991 O.3       1 <0>        -0.9099
     31 N5          3.8310   -2.9070   -0.0502 N.pl3     1 <0>        -0.8236
     32 H2         -0.9084    1.9694    0.0254 H         1 <0>         0.2193
     33 H3         -0.8543   -1.9305    0.0155 H         1 <0>         0.1256
     34 H4         -1.8749   -1.2882    2.0405 H         1 <0>         0.1074
     35 H5         -1.9289    0.4443    1.5704 H         1 <0>         0.0889
     36 H6         -3.8218   -1.8054    0.8200 H         1 <0>         0.1384
     37 H7         -4.1149   -0.3674   -1.5360 H         1 <0>         0.1278
     38 H8         -1.6777   -0.4699   -2.1961 H         1 <0>         0.1273
     39 H9         -6.4096    0.5300    1.4328 H         1 <0>         0.0922
     40 H10        -6.0058   -0.8051    0.3270 H         1 <0>         0.0493
     41 H11       -12.0332   -5.7935    1.9863 H         1 <0>         0.3998
     42 H12         4.7979   -2.9845   -0.0598 H         1 <0>         0.4119
     43 H13         3.2805   -3.7056   -0.0492 H         1 <0>         0.4296
@<TRIPOS>BOND
     1    1   11 1
     2    1    2 2
     3    1   32 1
     4    2    3 1
     5    3   10 2
     6    3    4 1
     7    4    5 2
     8    4    6 am
     9    6    7 1
    10    6    8 1
    11    8    9 2
    12    8   31 1
    13    9   10 1
    14   10   11 1
    15   11   12 1
    16   12   16 1
    17   12   13 1
    18   12   33 1
    19   13   14 1
    20   13   34 1
    21   13   35 1
    22   14   15 1
    23   14   17 1
    24   14   36 1
    25   15   16 2
    26   15   37 1
    27   16   38 1
    28   17   18 1
    29   18   19 1
    30   18   39 1
    31   18   40 1
    32   19   20 2
    33   19   21 1
    34   19   22 1
    35   22   23 1
    36   23   24 2
    37   23   25 1
    38   23   26 1
    39   26   27 1
    40   27   28 2
    41   27   29 1
    42   27   30 1
    43   30   41 1
    44   31   42 1
    45   31   43 1
@<TRIPOS>MOLECULE
CHEMBL538904__24
   42    44     0     0     0
SMALL
USER_CHARGES

@<TRIPOS>ATOM
      1 C1         -0.0314    1.2730   -0.2991 C.2       1 <0>         0.2278
      2 N1          1.1826    1.7388   -0.3408 N.2       1 <0>        -0.4340
      3 C2          2.0611    0.7125   -0.2315 C.2       1 <0>        -0.1515
      4 C3          3.4726    0.6215   -0.2153 C.2       1 <0>         0.5996
      5 O1          4.1642    1.6207   -0.3136 O.2       1 <0>        -0.5269
      6 N2          4.0354   -0.6005   -0.0875 N.am      1 <0>        -0.6582
      7 H1          5.0014   -0.6878   -0.0735 H         1 <0>         0.4118
      8 C4          3.2525   -1.7108    0.0222 C.2       1 <0>         0.6389
      9 N3          1.9402   -1.6396    0.0080 N.2       1 <0>        -0.5631
     10 C5          1.3126   -0.4643   -0.1148 C.2       1 <0>         0.2988
     11 N4         -0.0014   -0.0844   -0.1601 N.pl3     1 <0>        -0.4295
     12 C6         -1.1635   -0.9724   -0.0746 C.3       1 <0>         0.1581
     13 C7         -2.0804   -0.5485    1.0961 C.3       1 <0>        -0.1226
     14 C8         -3.4812   -0.8310    0.5053 C.3       1 <0>         0.0694
     15 C9         -3.2893   -0.7547   -0.9915 C.2       1 <0>        -0.1180
     16 C10        -2.0253   -0.8319   -1.3078 C.2       1 <0>        -0.1986
     17 O2         -3.9276   -2.1346    0.8842 O.3       1 <0>        -0.3427
     18 C11        -5.3351   -2.2227    1.1147 C.3       1 <0>        -0.5638
     19 P1         -5.7338   -1.4806    2.7314 P.3       1 <0>         2.3176
     20 O3         -4.8746   -2.1462    3.8295 O.2       1 <0>        -1.0817
     21 O4         -5.4341    0.0345    2.6905 O.3       1 <0>        -1.0932
     22 O5         -7.2936   -1.7106    3.0574 O.3       1 <0>        -1.1030
     23 P2         -8.2490   -1.3118    4.2904 P.3       1 <0>         2.3433
     24 O6         -7.4837   -1.5050    5.6185 O.2       1 <0>        -1.1174
     25 O7         -8.6771    0.1664    4.1531 O.3       1 <0>        -1.1376
     26 O8         -9.5560   -2.2519    4.2824 O.3       1 <0>        -1.1058
     27 P3        -10.7052   -2.5787    5.3616 P.3       1 <0>         2.2204
     28 O9        -10.0630   -2.7108    6.7845 O.2       1 <0>        -1.1963
     29 O10       -11.7588   -1.4193    5.3698 O.3       1 <0>        -1.2114
     30 O11       -11.4120   -3.9240    4.9807 O.3       1 <0>        -1.2136
     31 N5          3.8519   -2.9386    0.1506 N.pl3     1 <0>        -0.8255
     32 H2         -0.9284    1.8712   -0.3606 H         1 <0>         0.2229
     33 H3         -0.8418   -2.0067    0.0480 H         1 <0>         0.1196
     34 H4         -1.8970   -1.1615    1.9786 H         1 <0>         0.1076
     35 H5         -1.9585    0.5103    1.3250 H         1 <0>         0.0964
     36 H6         -4.1925   -0.0741    0.8360 H         1 <0>         0.1245
     37 H7         -4.0925   -0.6505   -1.7059 H         1 <0>         0.1293
     38 H8         -1.6452   -0.7991   -2.3182 H         1 <0>         0.1252
     39 H9         -5.8664   -1.6869    0.3280 H         1 <0>         0.0512
     40 H10        -5.6391   -3.2695    1.1105 H         1 <0>         0.0925
     41 H11         4.8194   -3.0072    0.1624 H         1 <0>         0.4108
     42 H12         3.3080   -3.7379    0.2297 H         1 <0>         0.4287
@<TRIPOS>BOND
     1    1   11 1
     2    1    2 2
     3    1   32 1
     4    2    3 1
     5    3   10 2
     6    3    4 1
     7    4    5 2
     8    4    6 am
     9    6    7 1
    10    6    8 1
    11    8    9 2
    12    8   31 1
    13    9   10 1
    14   10   11 1
    15   11   12 1
    16   12   16 1
    17   12   13 1
    18   12   33 1
    19   13   14 1
    20   13   34 1
    21   13   35 1
    22   14   15 1
    23   14   17 1
    24   14   36 1
    25   15   16 2
    26   15   37 1
    27   16   38 1
    28   17   18 1
    29   18   19 1
    30   18   39 1
    31   18   40 1
    32   19   20 2
    33   19   21 1
    34   19   22 1
    35   22   23 1
    36   23   24 2
    37   23   25 1
    38   23   26 1
    39   26   27 1
    40   27   28 2
    41   27   29 1
    42   27   30 1
    43   31   41 1
    44   31   42 1
@<TRIPOS>MOLECULE
CHEMBL538904__25
   43    45     0     0     0
SMALL
USER_CHARGES

@<TRIPOS>ATOM
      1 C1         -0.0314    1.2730   -0.2991 C.2       1 <0>         0.2253
      2 N1          1.1826    1.7388   -0.3408 N.2       1 <0>        -0.4316
      3 C2          2.0611    0.7125   -0.2315 C.2       1 <0>        -0.1507
      4 C3          3.4726    0.6215   -0.2153 C.2       1 <0>         0.5989
      5 O1          4.1642    1.6207   -0.3136 O.2       1 <0>        -0.5236
      6 N2          4.0354   -0.6005   -0.0875 N.am      1 <0>        -0.6581
      7 H1          5.0014   -0.6878   -0.0735 H         1 <0>         0.4130
      8 C4          3.2525   -1.7108    0.0222 C.2       1 <0>         0.6417
      9 N3          1.9402   -1.6396    0.0080 N.2       1 <0>        -0.5663
     10 C5          1.3126   -0.4643   -0.1148 C.2       1 <0>         0.3002
     11 N4         -0.0014   -0.0844   -0.1601 N.pl3     1 <0>        -0.4321
     12 C6         -1.1635   -0.9724   -0.0746 C.3       1 <0>         0.1582
     13 C7         -2.0804   -0.5485    1.0961 C.3       1 <0>        -0.1229
     14 C8         -3.4812   -0.8310    0.5053 C.3       1 <0>         0.0715
     15 C9         -3.2893   -0.7547   -0.9915 C.2       1 <0>        -0.1251
     16 C10        -2.0253   -0.8319   -1.3078 C.2       1 <0>        -0.1916
     17 O2         -3.9276   -2.1346    0.8842 O.3       1 <0>        -0.3421
     18 C11        -5.3351   -2.2227    1.1147 C.3       1 <0>        -0.5615
     19 P1         -5.7338   -1.4806    2.7314 P.3       1 <0>         2.3128
     20 O3         -4.8746   -2.1462    3.8295 O.2       1 <0>        -1.0764
     21 O4         -5.4341    0.0345    2.6905 O.3       1 <0>        -1.0861
     22 O5         -7.2936   -1.7106    3.0574 O.3       1 <0>        -1.1025
     23 P2         -8.2490   -1.3118    4.2904 P.3       1 <0>         2.3438
     24 O6         -7.4837   -1.5050    5.6185 O.2       1 <0>        -1.0981
     25 O7         -8.6771    0.1664    4.1531 O.3       1 <0>        -1.1140
     26 O8         -9.5560   -2.2519    4.2824 O.3       1 <0>        -1.0980
     27 P3        -10.7052   -2.5787    5.3616 P.3       1 <0>         2.2682
     28 O9        -10.0719   -2.7090    6.7648 O.2       1 <0>        -1.1060
     29 O10       -11.7443   -1.4353    5.3697 O.3       1 <0>        -1.1198
     30 O11       -11.4315   -3.9612    4.9702 O.3       1 <0>        -0.9098
     31 N5          3.8519   -2.9386    0.1506 N.pl3     1 <0>        -0.8246
     32 H2         -0.9284    1.8712   -0.3606 H         1 <0>         0.2223
     33 H3         -0.8418   -2.0067    0.0480 H         1 <0>         0.1198
     34 H4         -1.8970   -1.1615    1.9786 H         1 <0>         0.1070
     35 H5         -1.9585    0.5103    1.3250 H         1 <0>         0.0975
     36 H6         -4.1925   -0.0741    0.8360 H         1 <0>         0.1230
     37 H7         -4.0925   -0.6505   -1.7059 H         1 <0>         0.1293
     38 H8         -1.6452   -0.7991   -2.3182 H         1 <0>         0.1269
     39 H9         -5.8664   -1.6869    0.3280 H         1 <0>         0.0516
     40 H10        -5.6391   -3.2695    1.1105 H         1 <0>         0.0897
     41 H11       -12.1369   -4.2209    5.5785 H         1 <0>         0.3998
     42 H12         4.8194   -3.0072    0.1624 H         1 <0>         0.4119
     43 H13         3.3080   -3.7379    0.2297 H         1 <0>         0.4285
@<TRIPOS>BOND
     1    1   11 1
     2    1    2 2
     3    1   32 1
     4    2    3 1
     5    3   10 2
     6    3    4 1
     7    4    5 2
     8    4    6 am
     9    6    7 1
    10    6    8 1
    11    8    9 2
    12    8   31 1
    13    9   10 1
    14   10   11 1
    15   11   12 1
    16   12   16 1
    17   12   13 1
    18   12   33 1
    19   13   14 1
    20   13   34 1
    21   13   35 1
    22   14   15 1
    23   14   17 1
    24   14   36 1
    25   15   16 2
    26   15   37 1
    27   16   38 1
    28   17   18 1
    29   18   19 1
    30   18   39 1
    31   18   40 1
    32   19   20 2
    33   19   21 1
    34   19   22 1
    35   22   23 1
    36   23   24 2
    37   23   25 1
    38   23   26 1
    39   26   27 1
    40   27   28 2
    41   27   29 1
    42   27   30 1
    43   30   41 1
    44   31   42 1
    45   31   43 1
@<TRIPOS>MOLECULE
CHEMBL538904__26
   42    44     0     0     0
SMALL
USER_CHARGES

@<TRIPOS>ATOM
      1 C1         -0.0314    1.2730   -0.2991 C.2       1 <0>         0.2278
      2 N1          1.1826    1.7388   -0.3408 N.2       1 <0>        -0.4340
      3 C2          2.0611    0.7125   -0.2315 C.2       1 <0>        -0.1515
      4 C3          3.4726    0.6215   -0.2153 C.2       1 <0>         0.5996
      5 O1          4.1642    1.6207   -0.3136 O.2       1 <0>        -0.5269
      6 N2          4.0354   -0.6005   -0.0875 N.am      1 <0>        -0.6582
      7 H1          5.0014   -0.6878   -0.0735 H         1 <0>         0.4118
      8 C4          3.2525   -1.7108    0.0222 C.2       1 <0>         0.6389
      9 N3          1.9402   -1.6396    0.0080 N.2       1 <0>        -0.5631
     10 C5          1.3126   -0.4643   -0.1148 C.2       1 <0>         0.2988
     11 N4         -0.0014   -0.0844   -0.1601 N.pl3     1 <0>        -0.4295
     12 C6         -1.1635   -0.9724   -0.0746 C.3       1 <0>         0.1581
     13 C7         -2.0804   -0.5485    1.0961 C.3       1 <0>        -0.1226
     14 C8         -3.4812   -0.8310    0.5053 C.3       1 <0>         0.0694
     15 C9         -3.2893   -0.7547   -0.9915 C.2       1 <0>        -0.1180
     16 C10        -2.0253   -0.8319   -1.3078 C.2       1 <0>        -0.1986
     17 O2         -3.9276   -2.1346    0.8842 O.3       1 <0>        -0.3427
     18 C11        -5.3351   -2.2227    1.1147 C.3       1 <0>        -0.5638
     19 P1         -5.7338   -1.4806    2.7314 P.3       1 <0>         2.3176
     20 O3         -4.8746   -2.1462    3.8295 O.2       1 <0>        -1.0817
     21 O4         -5.4341    0.0345    2.6905 O.3       1 <0>        -1.0932
     22 O5         -7.2936   -1.7106    3.0574 O.3       1 <0>        -1.1030
     23 P2         -8.2490   -1.3118    4.2904 P.3       1 <0>         2.3433
     24 O6         -7.4837   -1.5050    5.6185 O.2       1 <0>        -1.1174
     25 O7         -8.6771    0.1664    4.1531 O.3       1 <0>        -1.1376
     26 O8         -9.5560   -2.2519    4.2824 O.3       1 <0>        -1.1058
     27 P3        -10.7052   -2.5787    5.3616 P.3       1 <0>         2.2204
     28 O9        -10.0630   -2.7108    6.7845 O.2       1 <0>        -1.1963
     29 O10       -11.7588   -1.4193    5.3698 O.3       1 <0>        -1.2114
     30 O11       -11.4120   -3.9240    4.9807 O.3       1 <0>        -1.2136
     31 N5          3.8519   -2.9386    0.1506 N.pl3     1 <0>        -0.8255
     32 H2         -0.9284    1.8712   -0.3606 H         1 <0>         0.2229
     33 H3         -0.8418   -2.0067    0.0480 H         1 <0>         0.1196
     34 H4         -1.8970   -1.1615    1.9786 H         1 <0>         0.1076
     35 H5         -1.9585    0.5103    1.3250 H         1 <0>         0.0964
     36 H6         -4.1925   -0.0741    0.8360 H         1 <0>         0.1245
     37 H7         -4.0925   -0.6505   -1.7059 H         1 <0>         0.1293
     38 H8         -1.6452   -0.7991   -2.3182 H         1 <0>         0.1252
     39 H9         -5.8664   -1.6869    0.3280 H         1 <0>         0.0512
     40 H10        -5.6391   -3.2695    1.1105 H         1 <0>         0.0925
     41 H11         4.8194   -3.0072    0.1624 H         1 <0>         0.4108
     42 H12         3.3080   -3.7379    0.2297 H         1 <0>         0.4287
@<TRIPOS>BOND
     1    1   11 1
     2    1    2 2
     3    1   32 1
     4    2    3 1
     5    3   10 2
     6    3    4 1
     7    4    5 2
     8    4    6 am
     9    6    7 1
    10    6    8 1
    11    8    9 2
    12    8   31 1
    13    9   10 1
    14   10   11 1
    15   11   12 1
    16   12   16 1
    17   12   13 1
    18   12   33 1
    19   13   14 1
    20   13   34 1
    21   13   35 1
    22   14   15 1
    23   14   17 1
    24   14   36 1
    25   15   16 2
    26   15   37 1
    27   16   38 1
    28   17   18 1
    29   18   19 1
    30   18   39 1
    31   18   40 1
    32   19   20 2
    33   19   21 1
    34   19   22 1
    35   22   23 1
    36   23   24 2
    37   23   25 1
    38   23   26 1
    39   26   27 1
    40   27   28 2
    41   27   29 1
    42   27   30 1
    43   31   41 1
    44   31   42 1
@<TRIPOS>MOLECULE
CHEMBL538904__27
   43    45     0     0     0
SMALL
USER_CHARGES

@<TRIPOS>ATOM
      1 C1         -0.0314    1.2730   -0.2991 C.2       1 <0>         0.2253
      2 N1          1.1826    1.7388   -0.3408 N.2       1 <0>        -0.4316
      3 C2          2.0611    0.7125   -0.2315 C.2       1 <0>        -0.1507
      4 C3          3.4726    0.6215   -0.2153 C.2       1 <0>         0.5989
      5 O1          4.1642    1.6207   -0.3136 O.2       1 <0>        -0.5236
      6 N2          4.0354   -0.6005   -0.0875 N.am      1 <0>        -0.6581
      7 H1          5.0014   -0.6878   -0.0735 H         1 <0>         0.4130
      8 C4          3.2525   -1.7108    0.0222 C.2       1 <0>         0.6417
      9 N3          1.9402   -1.6396    0.0080 N.2       1 <0>        -0.5663
     10 C5          1.3126   -0.4643   -0.1148 C.2       1 <0>         0.3002
     11 N4         -0.0014   -0.0844   -0.1601 N.pl3     1 <0>        -0.4321
     12 C6         -1.1635   -0.9724   -0.0746 C.3       1 <0>         0.1582
     13 C7         -2.0804   -0.5485    1.0961 C.3       1 <0>        -0.1229
     14 C8         -3.4812   -0.8310    0.5053 C.3       1 <0>         0.0715
     15 C9         -3.2893   -0.7547   -0.9915 C.2       1 <0>        -0.1251
     16 C10        -2.0253   -0.8319   -1.3078 C.2       1 <0>        -0.1916
     17 O2         -3.9276   -2.1346    0.8842 O.3       1 <0>        -0.3421
     18 C11        -5.3351   -2.2227    1.1147 C.3       1 <0>        -0.5615
     19 P1         -5.7338   -1.4806    2.7314 P.3       1 <0>         2.3128
     20 O3         -4.8746   -2.1462    3.8295 O.2       1 <0>        -1.0764
     21 O4         -5.4341    0.0345    2.6905 O.3       1 <0>        -1.0861
     22 O5         -7.2936   -1.7106    3.0574 O.3       1 <0>        -1.1025
     23 P2         -8.2490   -1.3118    4.2904 P.3       1 <0>         2.3438
     24 O6         -7.4837   -1.5050    5.6185 O.2       1 <0>        -1.0981
     25 O7         -8.6771    0.1664    4.1531 O.3       1 <0>        -1.1140
     26 O8         -9.5560   -2.2519    4.2824 O.3       1 <0>        -1.0980
     27 P3        -10.7052   -2.5787    5.3616 P.3       1 <0>         2.2682
     28 O9        -10.0719   -2.7090    6.7648 O.2       1 <0>        -1.1060
     29 O10       -11.7443   -1.4353    5.3697 O.3       1 <0>        -1.1198
     30 O11       -11.4315   -3.9612    4.9702 O.3       1 <0>        -0.9098
     31 N5          3.8519   -2.9386    0.1506 N.pl3     1 <0>        -0.8246
     32 H2         -0.9284    1.8712   -0.3606 H         1 <0>         0.2223
     33 H3         -0.8418   -2.0067    0.0480 H         1 <0>         0.1198
     34 H4         -1.8970   -1.1615    1.9786 H         1 <0>         0.1070
     35 H5         -1.9585    0.5103    1.3250 H         1 <0>         0.0975
     36 H6         -4.1925   -0.0741    0.8360 H         1 <0>         0.1230
     37 H7         -4.0925   -0.6505   -1.7059 H         1 <0>         0.1293
     38 H8         -1.6452   -0.7991   -2.3182 H         1 <0>         0.1269
     39 H9         -5.8664   -1.6869    0.3280 H         1 <0>         0.0516
     40 H10        -5.6391   -3.2695    1.1105 H         1 <0>         0.0897
     41 H11       -12.1369   -4.2209    5.5785 H         1 <0>         0.3998
     42 H12         4.8194   -3.0072    0.1624 H         1 <0>         0.4119
     43 H13         3.3080   -3.7379    0.2297 H         1 <0>         0.4285
@<TRIPOS>BOND
     1    1   11 1
     2    1    2 2
     3    1   32 1
     4    2    3 1
     5    3   10 2
     6    3    4 1
     7    4    5 2
     8    4    6 am
     9    6    7 1
    10    6    8 1
    11    8    9 2
    12    8   31 1
    13    9   10 1
    14   10   11 1
    15   11   12 1
    16   12   16 1
    17   12   13 1
    18   12   33 1
    19   13   14 1
    20   13   34 1
    21   13   35 1
    22   14   15 1
    23   14   17 1
    24   14   36 1
    25   15   16 2
    26   15   37 1
    27   16   38 1
    28   17   18 1
    29   18   19 1
    30   18   39 1
    31   18   40 1
    32   19   20 2
    33   19   21 1
    34   19   22 1
    35   22   23 1
    36   23   24 2
    37   23   25 1
    38   23   26 1
    39   26   27 1
    40   27   28 2
    41   27   29 1
    42   27   30 1
    43   30   41 1
    44   31   42 1
    45   31   43 1
@<TRIPOS>MOLECULE
CHEMBL538904__28
   42    44     0     0     0
SMALL
USER_CHARGES

@<TRIPOS>ATOM
      1 C1         -0.0314    1.2730   -0.2991 C.2       1 <0>         0.2278
      2 N1          1.1826    1.7388   -0.3408 N.2       1 <0>        -0.4340
      3 C2          2.0611    0.7125   -0.2315 C.2       1 <0>        -0.1515
      4 C3          3.4726    0.6215   -0.2153 C.2       1 <0>         0.5996
      5 O1          4.1642    1.6207   -0.3136 O.2       1 <0>        -0.5269
      6 N2          4.0354   -0.6005   -0.0875 N.am      1 <0>        -0.6582
      7 H1          5.0014   -0.6878   -0.0735 H         1 <0>         0.4118
      8 C4          3.2525   -1.7108    0.0222 C.2       1 <0>         0.6389
      9 N3          1.9402   -1.6396    0.0080 N.2       1 <0>        -0.5631
     10 C5          1.3126   -0.4643   -0.1148 C.2       1 <0>         0.2988
     11 N4         -0.0014   -0.0844   -0.1601 N.pl3     1 <0>        -0.4295
     12 C6         -1.1635   -0.9724   -0.0746 C.3       1 <0>         0.1581
     13 C7         -2.0804   -0.5485    1.0961 C.3       1 <0>        -0.1226
     14 C8         -3.4812   -0.8310    0.5053 C.3       1 <0>         0.0694
     15 C9         -3.2893   -0.7547   -0.9915 C.2       1 <0>        -0.1180
     16 C10        -2.0253   -0.8319   -1.3078 C.2       1 <0>        -0.1986
     17 O2         -3.9276   -2.1346    0.8842 O.3       1 <0>        -0.3427
     18 C11        -5.3351   -2.2227    1.1147 C.3       1 <0>        -0.5638
     19 P1         -5.7338   -1.4806    2.7314 P.3       1 <0>         2.3176
     20 O3         -4.8746   -2.1462    3.8295 O.2       1 <0>        -1.0817
     21 O4         -5.4341    0.0345    2.6905 O.3       1 <0>        -1.0932
     22 O5         -7.2936   -1.7106    3.0574 O.3       1 <0>        -1.1030
     23 P2         -8.2490   -1.3118    4.2904 P.3       1 <0>         2.3433
     24 O6         -7.4837   -1.5050    5.6185 O.2       1 <0>        -1.1174
     25 O7         -8.6771    0.1664    4.1531 O.3       1 <0>        -1.1376
     26 O8         -9.5560   -2.2519    4.2824 O.3       1 <0>        -1.1058
     27 P3        -10.7052   -2.5787    5.3616 P.3       1 <0>         2.2204
     28 O9        -10.0630   -2.7108    6.7845 O.2       1 <0>        -1.1963
     29 O10       -11.7588   -1.4193    5.3698 O.3       1 <0>        -1.2114
     30 O11       -11.4120   -3.9240    4.9807 O.3       1 <0>        -1.2136
     31 N5          3.8519   -2.9386    0.1506 N.pl3     1 <0>        -0.8255
     32 H2         -0.9284    1.8712   -0.3606 H         1 <0>         0.2229
     33 H3         -0.8418   -2.0067    0.0480 H         1 <0>         0.1196
     34 H4         -1.8970   -1.1615    1.9786 H         1 <0>         0.1076
     35 H5         -1.9585    0.5103    1.3250 H         1 <0>         0.0964
     36 H6         -4.1925   -0.0741    0.8360 H         1 <0>         0.1245
     37 H7         -4.0925   -0.6505   -1.7059 H         1 <0>         0.1293
     38 H8         -1.6452   -0.7991   -2.3182 H         1 <0>         0.1252
     39 H9         -5.8664   -1.6869    0.3280 H         1 <0>         0.0512
     40 H10        -5.6391   -3.2695    1.1105 H         1 <0>         0.0925
     41 H11         4.8194   -3.0072    0.1624 H         1 <0>         0.4108
     42 H12         3.3080   -3.7379    0.2297 H         1 <0>         0.4287
@<TRIPOS>BOND
     1    1   11 1
     2    1    2 2
     3    1   32 1
     4    2    3 1
     5    3   10 2
     6    3    4 1
     7    4    5 2
     8    4    6 am
     9    6    7 1
    10    6    8 1
    11    8    9 2
    12    8   31 1
    13    9   10 1
    14   10   11 1
    15   11   12 1
    16   12   16 1
    17   12   13 1
    18   12   33 1
    19   13   14 1
    20   13   34 1
    21   13   35 1
    22   14   15 1
    23   14   17 1
    24   14   36 1
    25   15   16 2
    26   15   37 1
    27   16   38 1
    28   17   18 1
    29   18   19 1
    30   18   39 1
    31   18   40 1
    32   19   20 2
    33   19   21 1
    34   19   22 1
    35   22   23 1
    36   23   24 2
    37   23   25 1
    38   23   26 1
    39   26   27 1
    40   27   28 2
    41   27   29 1
    42   27   30 1
    43   31   41 1
    44   31   42 1
@<TRIPOS>MOLECULE
CHEMBL538904__29
   43    45     0     0     0
SMALL
USER_CHARGES

@<TRIPOS>ATOM
      1 C1         -0.0314    1.2730   -0.2991 C.2       1 <0>         0.2253
      2 N1          1.1826    1.7388   -0.3408 N.2       1 <0>        -0.4316
      3 C2          2.0611    0.7125   -0.2315 C.2       1 <0>        -0.1507
      4 C3          3.4726    0.6215   -0.2153 C.2       1 <0>         0.5989
      5 O1          4.1642    1.6207   -0.3136 O.2       1 <0>        -0.5236
      6 N2          4.0354   -0.6005   -0.0875 N.am      1 <0>        -0.6581
      7 H1          5.0014   -0.6878   -0.0735 H         1 <0>         0.4130
      8 C4          3.2525   -1.7108    0.0222 C.2       1 <0>         0.6417
      9 N3          1.9402   -1.6396    0.0080 N.2       1 <0>        -0.5663
     10 C5          1.3126   -0.4643   -0.1148 C.2       1 <0>         0.3002
     11 N4         -0.0014   -0.0844   -0.1601 N.pl3     1 <0>        -0.4321
     12 C6         -1.1635   -0.9724   -0.0746 C.3       1 <0>         0.1582
     13 C7         -2.0804   -0.5485    1.0961 C.3       1 <0>        -0.1229
     14 C8         -3.4812   -0.8310    0.5053 C.3       1 <0>         0.0715
     15 C9         -3.2893   -0.7547   -0.9915 C.2       1 <0>        -0.1251
     16 C10        -2.0253   -0.8319   -1.3078 C.2       1 <0>        -0.1916
     17 O2         -3.9276   -2.1346    0.8842 O.3       1 <0>        -0.3421
     18 C11        -5.3351   -2.2227    1.1147 C.3       1 <0>        -0.5615
     19 P1         -5.7338   -1.4806    2.7314 P.3       1 <0>         2.3128
     20 O3         -4.8746   -2.1462    3.8295 O.2       1 <0>        -1.0764
     21 O4         -5.4341    0.0345    2.6905 O.3       1 <0>        -1.0861
     22 O5         -7.2936   -1.7106    3.0574 O.3       1 <0>        -1.1025
     23 P2         -8.2490   -1.3118    4.2904 P.3       1 <0>         2.3438
     24 O6         -7.4837   -1.5050    5.6185 O.2       1 <0>        -1.0981
     25 O7         -8.6771    0.1664    4.1531 O.3       1 <0>        -1.1140
     26 O8         -9.5560   -2.2519    4.2824 O.3       1 <0>        -1.0980
     27 P3        -10.7052   -2.5787    5.3616 P.3       1 <0>         2.2682
     28 O9        -10.0719   -2.7090    6.7648 O.2       1 <0>        -1.1060
     29 O10       -11.7443   -1.4353    5.3697 O.3       1 <0>        -1.1198
     30 O11       -11.4315   -3.9612    4.9702 O.3       1 <0>        -0.9098
     31 N5          3.8519   -2.9386    0.1506 N.pl3     1 <0>        -0.8246
     32 H2         -0.9284    1.8712   -0.3606 H         1 <0>         0.2223
     33 H3         -0.8418   -2.0067    0.0480 H         1 <0>         0.1198
     34 H4         -1.8970   -1.1615    1.9786 H         1 <0>         0.1070
     35 H5         -1.9585    0.5103    1.3250 H         1 <0>         0.0975
     36 H6         -4.1925   -0.0741    0.8360 H         1 <0>         0.1230
     37 H7         -4.0925   -0.6505   -1.7059 H         1 <0>         0.1293
     38 H8         -1.6452   -0.7991   -2.3182 H         1 <0>         0.1269
     39 H9         -5.8664   -1.6869    0.3280 H         1 <0>         0.0516
     40 H10        -5.6391   -3.2695    1.1105 H         1 <0>         0.0897
     41 H11       -12.1369   -4.2209    5.5785 H         1 <0>         0.3998
     42 H12         4.8194   -3.0072    0.1624 H         1 <0>         0.4119
     43 H13         3.3080   -3.7379    0.2297 H         1 <0>         0.4285
@<TRIPOS>BOND
     1    1   11 1
     2    1    2 2
     3    1   32 1
     4    2    3 1
     5    3   10 2
     6    3    4 1
     7    4    5 2
     8    4    6 am
     9    6    7 1
    10    6    8 1
    11    8    9 2
    12    8   31 1
    13    9   10 1
    14   10   11 1
    15   11   12 1
    16   12   16 1
    17   12   13 1
    18   12   33 1
    19   13   14 1
    20   13   34 1
    21   13   35 1
    22   14   15 1
    23   14   17 1
    24   14   36 1
    25   15   16 2
    26   15   37 1
    27   16   38 1
    28   17   18 1
    29   18   19 1
    30   18   39 1
    31   18   40 1
    32   19   20 2
    33   19   21 1
    34   19   22 1
    35   22   23 1
    36   23   24 2
    37   23   25 1
    38   23   26 1
    39   26   27 1
    40   27   28 2
    41   27   29 1
    42   27   30 1
    43   30   41 1
    44   31   42 1
    45   31   43 1
@<TRIPOS>MOLECULE
CHEMBL538904__30
   42    44     0     0     0
SMALL
USER_CHARGES

@<TRIPOS>ATOM
      1 C1         -0.0314    1.2730   -0.2991 C.2       1 <0>         0.2278
      2 N1          1.1826    1.7388   -0.3408 N.2       1 <0>        -0.4340
      3 C2          2.0611    0.7125   -0.2315 C.2       1 <0>        -0.1515
      4 C3          3.4726    0.6215   -0.2153 C.2       1 <0>         0.5996
      5 O1          4.1642    1.6207   -0.3136 O.2       1 <0>        -0.5269
      6 N2          4.0354   -0.6005   -0.0875 N.am      1 <0>        -0.6582
      7 H1          5.0014   -0.6878   -0.0735 H         1 <0>         0.4118
      8 C4          3.2525   -1.7108    0.0222 C.2       1 <0>         0.6389
      9 N3          1.9402   -1.6396    0.0080 N.2       1 <0>        -0.5631
     10 C5          1.3126   -0.4643   -0.1148 C.2       1 <0>         0.2988
     11 N4         -0.0014   -0.0844   -0.1601 N.pl3     1 <0>        -0.4295
     12 C6         -1.1635   -0.9724   -0.0746 C.3       1 <0>         0.1581
     13 C7         -2.0804   -0.5485    1.0961 C.3       1 <0>        -0.1226
     14 C8         -3.4812   -0.8310    0.5053 C.3       1 <0>         0.0694
     15 C9         -3.2893   -0.7547   -0.9915 C.2       1 <0>        -0.1180
     16 C10        -2.0253   -0.8319   -1.3078 C.2       1 <0>        -0.1986
     17 O2         -3.9276   -2.1346    0.8842 O.3       1 <0>        -0.3427
     18 C11        -5.3351   -2.2227    1.1147 C.3       1 <0>        -0.5638
     19 P1         -5.7338   -1.4806    2.7314 P.3       1 <0>         2.3176
     20 O3         -4.8746   -2.1462    3.8295 O.2       1 <0>        -1.0817
     21 O4         -5.4341    0.0345    2.6905 O.3       1 <0>        -1.0932
     22 O5         -7.2936   -1.7106    3.0574 O.3       1 <0>        -1.1030
     23 P2         -8.2490   -1.3118    4.2904 P.3       1 <0>         2.3433
     24 O6         -7.4837   -1.5050    5.6185 O.2       1 <0>        -1.1174
     25 O7         -8.6771    0.1664    4.1531 O.3       1 <0>        -1.1376
     26 O8         -9.5560   -2.2519    4.2824 O.3       1 <0>        -1.1058
     27 P3        -10.7052   -2.5787    5.3616 P.3       1 <0>         2.2204
     28 O9        -10.0630   -2.7108    6.7845 O.2       1 <0>        -1.1963
     29 O10       -11.7588   -1.4193    5.3698 O.3       1 <0>        -1.2114
     30 O11       -11.4120   -3.9240    4.9807 O.3       1 <0>        -1.2136
     31 N5          3.8519   -2.9386    0.1506 N.pl3     1 <0>        -0.8255
     32 H2         -0.9284    1.8712   -0.3606 H         1 <0>         0.2229
     33 H3         -0.8418   -2.0067    0.0480 H         1 <0>         0.1196
     34 H4         -1.8970   -1.1615    1.9786 H         1 <0>         0.1076
     35 H5         -1.9585    0.5103    1.3250 H         1 <0>         0.0964
     36 H6         -4.1925   -0.0741    0.8360 H         1 <0>         0.1245
     37 H7         -4.0925   -0.6505   -1.7059 H         1 <0>         0.1293
     38 H8         -1.6452   -0.7991   -2.3182 H         1 <0>         0.1252
     39 H9         -5.8664   -1.6869    0.3280 H         1 <0>         0.0512
     40 H10        -5.6391   -3.2695    1.1105 H         1 <0>         0.0925
     41 H11         4.8194   -3.0072    0.1624 H         1 <0>         0.4108
     42 H12         3.3080   -3.7379    0.2297 H         1 <0>         0.4287
@<TRIPOS>BOND
     1    1   11 1
     2    1    2 2
     3    1   32 1
     4    2    3 1
     5    3   10 2
     6    3    4 1
     7    4    5 2
     8    4    6 am
     9    6    7 1
    10    6    8 1
    11    8    9 2
    12    8   31 1
    13    9   10 1
    14   10   11 1
    15   11   12 1
    16   12   16 1
    17   12   13 1
    18   12   33 1
    19   13   14 1
    20   13   34 1
    21   13   35 1
    22   14   15 1
    23   14   17 1
    24   14   36 1
    25   15   16 2
    26   15   37 1
    27   16   38 1
    28   17   18 1
    29   18   19 1
    30   18   39 1
    31   18   40 1
    32   19   20 2
    33   19   21 1
    34   19   22 1
    35   22   23 1
    36   23   24 2
    37   23   25 1
    38   23   26 1
    39   26   27 1
    40   27   28 2
    41   27   29 1
    42   27   30 1
    43   31   41 1
    44   31   42 1
@<TRIPOS>MOLECULE
CHEMBL538904__31
   43    45     0     0     0
SMALL
USER_CHARGES

@<TRIPOS>ATOM
      1 C1         -0.0314    1.2730   -0.2991 C.2       1 <0>         0.2253
      2 N1          1.1826    1.7388   -0.3408 N.2       1 <0>        -0.4316
      3 C2          2.0611    0.7125   -0.2315 C.2       1 <0>        -0.1507
      4 C3          3.4726    0.6215   -0.2153 C.2       1 <0>         0.5989
      5 O1          4.1642    1.6207   -0.3136 O.2       1 <0>        -0.5236
      6 N2          4.0354   -0.6005   -0.0875 N.am      1 <0>        -0.6581
      7 H1          5.0014   -0.6878   -0.0735 H         1 <0>         0.4130
      8 C4          3.2525   -1.7108    0.0222 C.2       1 <0>         0.6417
      9 N3          1.9402   -1.6396    0.0080 N.2       1 <0>        -0.5663
     10 C5          1.3126   -0.4643   -0.1148 C.2       1 <0>         0.3002
     11 N4         -0.0014   -0.0844   -0.1601 N.pl3     1 <0>        -0.4321
     12 C6         -1.1635   -0.9724   -0.0746 C.3       1 <0>         0.1582
     13 C7         -2.0804   -0.5485    1.0961 C.3       1 <0>        -0.1229
     14 C8         -3.4812   -0.8310    0.5053 C.3       1 <0>         0.0715
     15 C9         -3.2893   -0.7547   -0.9915 C.2       1 <0>        -0.1251
     16 C10        -2.0253   -0.8319   -1.3078 C.2       1 <0>        -0.1916
     17 O2         -3.9276   -2.1346    0.8842 O.3       1 <0>        -0.3421
     18 C11        -5.3351   -2.2227    1.1147 C.3       1 <0>        -0.5615
     19 P1         -5.7338   -1.4806    2.7314 P.3       1 <0>         2.3128
     20 O3         -4.8746   -2.1462    3.8295 O.2       1 <0>        -1.0764
     21 O4         -5.4341    0.0345    2.6905 O.3       1 <0>        -1.0861
     22 O5         -7.2936   -1.7106    3.0574 O.3       1 <0>        -1.1025
     23 P2         -8.2490   -1.3118    4.2904 P.3       1 <0>         2.3438
     24 O6         -7.4837   -1.5050    5.6185 O.2       1 <0>        -1.0981
     25 O7         -8.6771    0.1664    4.1531 O.3       1 <0>        -1.1140
     26 O8         -9.5560   -2.2519    4.2824 O.3       1 <0>        -1.0980
     27 P3        -10.7052   -2.5787    5.3616 P.3       1 <0>         2.2682
     28 O9        -10.0719   -2.7090    6.7648 O.2       1 <0>        -1.1060
     29 O10       -11.7443   -1.4353    5.3697 O.3       1 <0>        -1.1198
     30 O11       -11.4315   -3.9612    4.9702 O.3       1 <0>        -0.9098
     31 N5          3.8519   -2.9386    0.1506 N.pl3     1 <0>        -0.8246
     32 H2         -0.9284    1.8712   -0.3606 H         1 <0>         0.2223
     33 H3         -0.8418   -2.0067    0.0480 H         1 <0>         0.1198
     34 H4         -1.8970   -1.1615    1.9786 H         1 <0>         0.1070
     35 H5         -1.9585    0.5103    1.3250 H         1 <0>         0.0975
     36 H6         -4.1925   -0.0741    0.8360 H         1 <0>         0.1230
     37 H7         -4.0925   -0.6505   -1.7059 H         1 <0>         0.1293
     38 H8         -1.6452   -0.7991   -2.3182 H         1 <0>         0.1269
     39 H9         -5.8664   -1.6869    0.3280 H         1 <0>         0.0516
     40 H10        -5.6391   -3.2695    1.1105 H         1 <0>         0.0897
     41 H11       -12.1369   -4.2209    5.5785 H         1 <0>         0.3998
     42 H12         4.8194   -3.0072    0.1624 H         1 <0>         0.4119
     43 H13         3.3080   -3.7379    0.2297 H         1 <0>         0.4285
@<TRIPOS>BOND
     1    1   11 1
     2    1    2 2
     3    1   32 1
     4    2    3 1
     5    3   10 2
     6    3    4 1
     7    4    5 2
     8    4    6 am
     9    6    7 1
    10    6    8 1
    11    8    9 2
    12    8   31 1
    13    9   10 1
    14   10   11 1
    15   11   12 1
    16   12   16 1
    17   12   13 1
    18   12   33 1
    19   13   14 1
    20   13   34 1
    21   13   35 1
    22   14   15 1
    23   14   17 1
    24   14   36 1
    25   15   16 2
    26   15   37 1
    27   16   38 1
    28   17   18 1
    29   18   19 1
    30   18   39 1
    31   18   40 1
    32   19   20 2
    33   19   21 1
    34   19   22 1
    35   22   23 1
    36   23   24 2
    37   23   25 1
    38   23   26 1
    39   26   27 1
    40   27   28 2
    41   27   29 1
    42   27   30 1
    43   30   41 1
    44   31   42 1
    45   31   43 1
@<TRIPOS>MOLECULE
CHEMBL262184
   51    55     0     0     0
SMALL
USER_CHARGES

@<TRIPOS>ATOM
      1 C1         -0.0187    1.5258    0.0104 C.3       1 <0>        -0.1712
      2 C2          0.0021   -0.0041    0.0020 C.3       1 <0>         0.1355
      3 N1          0.7106   -0.4894    1.1889 N.pl3     1 <0>        -0.5775
      4 C3          2.0889   -0.7000    1.1500 C.ar      1 <0>         0.3808
      5 C4          2.9401    0.0079    1.9951 C.ar      1 <0>         0.0976
      6 C5          4.3025   -0.2729    1.9669 C.ar      1 <0>        -0.0728
      7 C6          4.7668   -1.2270    1.0728 C.ar      1 <0>        -0.1353
      8 C7          3.8684   -1.8665    0.2413 C.ar      1 <0>         0.1840
      9 N2          2.5782   -1.5926    0.3004 N.ar      1 <0>        -0.4681
     10 Cl1         4.4430   -3.0451   -0.8965 Cl        1 <0>        -0.0162
     11 N3          2.4733    1.0232    2.8270 N.am      1 <0>        -0.5373
     12 C8          1.3456    1.0257    3.5224 C.2       1 <0>         0.5772
     13 O1          1.1189    2.0028    4.2094 O.2       1 <0>        -0.5173
     14 C9          0.3474   -0.0481    3.5345 C.ar      1 <0>        -0.2010
     15 C10         0.0203   -0.7384    2.3627 C.ar      1 <0>         0.4225
     16 N4         -0.9437   -1.6476    2.3792 N.ar      1 <0>        -0.4967
     17 C11        -1.5843   -1.9626    3.4880 C.ar      1 <0>         0.1796
     18 C12        -1.2762   -1.3540    4.6909 C.ar      1 <0>        -0.1640
     19 C13        -0.3038   -0.3876    4.7255 C.ar      1 <0>         0.0229
     20 C14        -1.9997   -1.7523    5.9515 C.3       1 <0>         0.1102
     21 O2         -1.2952   -2.8205    6.5877 O.3       1 <0>        -0.3112
     22 C15        -1.8190   -3.3014    7.7469 C.ar      1 <0>         0.1018
     23 C16        -2.9945   -2.7550    8.2560 C.ar      1 <0>        -0.1783
     24 C17        -3.5386   -3.2303    9.4280 C.ar      1 <0>        -0.0888
     25 C18        -2.9137   -4.2658   10.1151 C.ar      1 <0>         0.0636
     26 C19        -1.7267   -4.8197    9.6037 C.ar      1 <0>        -0.0707
     27 C20        -1.1866   -4.3331    8.4110 C.ar      1 <0>        -0.1092
     28 C21        -1.3306   -5.8696   10.5452 C.2       1 <0>        -0.2115
     29 C22        -2.2519   -5.8902   11.5214 C.2       1 <0>         0.0616
     30 N5         -3.2060   -4.9394   11.2824 N.pl3     1 <0>        -0.5975
     31 H1         -3.9732   -4.7647   11.8496 H         1 <0>         0.4160
     32 C23         3.3189    2.2136    2.9457 C.3       1 <0>         0.0640
     33 H2          1.0039    1.9031    0.0027 H         1 <0>         0.0545
     34 H3         -0.5459    1.8868   -0.8726 H         1 <0>         0.0742
     35 H4         -0.5289    1.8773    0.9072 H         1 <0>         0.0550
     36 H5         -1.0205   -0.3814    0.0098 H         1 <0>         0.0864
     37 H6          0.5123   -0.3556   -0.8948 H         1 <0>         0.0857
     38 H7          4.9847    0.2411    2.6277 H         1 <0>         0.1599
     39 H8          5.8188   -1.4671    1.0279 H         1 <0>         0.1591
     40 H9         -2.3634   -2.7098    3.4560 H         1 <0>         0.1706
     41 H10        -0.0517    0.1043    5.6534 H         1 <0>         0.1507
     42 H11        -2.0508   -0.8980    6.6264 H         1 <0>         0.0770
     43 H12        -3.0091   -2.0800    5.7030 H         1 <0>         0.0794
     44 H13        -3.4836   -1.9506    7.7267 H         1 <0>         0.1323
     45 H14        -4.4504   -2.7990    9.8140 H         1 <0>         0.1243
     46 H15        -0.2773   -4.7587    8.0130 H         1 <0>         0.1306
     47 H16        -0.4621   -6.5070   10.4683 H         1 <0>         0.1482
     48 H17        -2.2415   -6.5584   12.3698 H         1 <0>         0.1722
     49 H18         3.0390    2.9361    2.1790 H         1 <0>         0.0698
     50 H19         3.1832    2.6588    3.9313 H         1 <0>         0.0958
     51 H20         4.3637    1.9317    2.8151 H         1 <0>         0.0814
@<TRIPOS>BOND
     1    1    2 1
     2    1   33 1
     3    1   34 1
     4    1   35 1
     5    2    3 1
     6    2   36 1
     7    2   37 1
     8    3   15 1
     9    3    4 1
    10    4    9 ar
    11    4    5 ar
    12    5    6 ar
    13    5   11 1
    14    6    7 ar
    15    6   38 1
    16    7    8 ar
    17    7   39 1
    18    8    9 ar
    19    8   10 1
    20   11   12 am
    21   11   32 1
    22   12   13 2
    23   12   14 1
    24   14   19 ar
    25   14   15 ar
    26   15   16 ar
    27   16   17 ar
    28   17   18 ar
    29   17   40 1
    30   18   19 ar
    31   18   20 1
    32   19   41 1
    33   20   21 1
    34   20   42 1
    35   20   43 1
    36   21   22 1
    37   22   27 ar
    38   22   23 ar
    39   23   24 ar
    40   23   44 1
    41   24   25 ar
    42   24   45 1
    43   25   30 1
    44   25   26 ar
    45   26   27 ar
    46   26   28 1
    47   27   46 1
    48   28   29 2
    49   28   47 1
    50   29   30 1
    51   29   48 1
    52   30   31 1
    53   32   49 1
    54   32   50 1
    55   32   51 1
@<TRIPOS>MOLECULE
CHEMBL144591
   45    49     0     0     0
SMALL
USER_CHARGES

@<TRIPOS>ATOM
      1 C1         -0.0167    1.3786    0.0096 C.ar      1 <0>        -0.1885
      2 C2          1.1793    2.0757    0.0019 C.ar      1 <0>        -0.0080
      3 C3          2.3744    1.3475   -0.0056 C.ar      1 <0>        -0.2105
      4 C4          2.3114   -0.0544    0.0273 C.ar      1 <0>         0.4195
      5 N1          1.1396   -0.6716    0.0084 N.ar      1 <0>        -0.4919
      6 C5          0.0021   -0.0041    0.0020 C.ar      1 <0>         0.1566
      7 N2          3.4787   -0.7938    0.1228 N.pl3     1 <0>        -0.5551
      8 C6          4.3171   -0.6097    1.2223 C.ar      1 <0>         0.3739
      9 C7          4.8998    0.6297    1.4734 C.ar      1 <0>         0.0872
     10 C8          5.6858    0.7858    2.6105 C.ar      1 <0>        -0.0594
     11 C9          5.8839   -0.3112    3.4374 C.ar      1 <0>        -0.1487
     12 C10         5.2994   -1.5171    3.1094 C.ar      1 <0>         0.1228
     13 N3          4.5457   -1.6338    2.0327 N.ar      1 <0>        -0.4632
     14 C11         6.3089    2.1184    2.9379 C.3       1 <0>        -0.0267
     15 C12         5.3161    2.9655    3.6914 C.2       1 <0>        -0.1251
     16 C13         5.2455    3.0687    4.9950 C.2       1 <0>        -0.1510
     17 C14         4.1229    4.0101    5.3654 C.3       1 <0>         0.0209
     18 N4          3.8165    4.7628    4.1258 N.4       1 <0>        -0.5130
     19 C15         4.2519    3.8327    3.0595 C.3       1 <0>         0.0207
     20 N5          4.7579    1.7005    0.5942 N.am      1 <0>        -0.6495
     21 C16         3.6605    2.0480   -0.0608 C.2       1 <0>         0.5768
     22 O1          3.7257    3.0338   -0.7695 O.2       1 <0>        -0.5190
     23 C17         3.8292   -1.7604   -0.9208 C.3       1 <0>         0.0949
     24 C18         2.9764   -1.7689   -2.1911 C.3       1 <0>        -0.1807
     25 C19         2.8510   -2.9084   -1.1778 C.3       1 <0>        -0.1764
     26 H1         -0.9566    1.9102    0.0259 H         1 <0>         0.1517
     27 H2          1.1898    3.1557    0.0014 H         1 <0>         0.1467
     28 H3         -0.9314   -0.5471   -0.0090 H         1 <0>         0.1719
     29 H4          6.4886   -0.2218    4.3278 H         1 <0>         0.1499
     30 H5          5.4612   -2.3772    3.7422 H         1 <0>         0.1720
     31 H6          7.1953    1.9637    3.5531 H         1 <0>         0.1153
     32 H7          6.5912    2.6241    2.0146 H         1 <0>         0.0963
     33 H8          5.8898    2.5598    5.6966 H         1 <0>         0.1791
     34 H9          3.2488    3.4459    5.6904 H         1 <0>         0.1475
     35 H10         4.4463    4.6926    6.1514 H         1 <0>         0.1469
     36 H11         2.8276    4.9512    4.0574 H         1 <0>         0.4426
     37 H12         4.6675    4.3881    2.2187 H         1 <0>         0.1446
     38 H13         3.4122    3.2205    2.7305 H         1 <0>         0.1386
     39 H14         5.5444    2.2485    0.4461 H         1 <0>         0.4100
     40 H15         4.8931   -1.9723   -1.0271 H         1 <0>         0.1300
     41 H16         2.1545   -1.0554   -2.2503 H         1 <0>         0.0914
     42 H17         3.4792   -1.9864   -3.1334 H         1 <0>         0.1069
     43 H18         3.2714   -3.8756   -1.4535 H         1 <0>         0.1008
     44 H19         1.9467   -2.9446   -0.5704 H         1 <0>         0.1129
     45 H20         4.3488    5.6191    4.0868 H         1 <0>         0.4383
@<TRIPOS>BOND
     1    1    6 ar
     2    1    2 ar
     3    1   26 1
     4    2    3 ar
     5    2   27 1
     6    3   21 1
     7    3    4 ar
     8    4    5 ar
     9    4    7 1
    10    5    6 ar
    11    6   28 1
    12    7    8 1
    13    7   23 1
    14    8   13 ar
    15    8    9 ar
    16    9   10 ar
    17    9   20 1
    18   10   11 ar
    19   10   14 1
    20   11   12 ar
    21   11   29 1
    22   12   13 ar
    23   12   30 1
    24   14   15 1
    25   14   31 1
    26   14   32 1
    27   15   19 1
    28   15   16 2
    29   16   17 1
    30   16   33 1
    31   17   18 1
    32   17   34 1
    33   17   35 1
    34   18   19 1
    35   18   36 1
    36   18   45 1
    37   19   37 1
    38   19   38 1
    39   20   21 am
    40   20   39 1
    41   21   22 2
    42   23   25 1
    43   23   24 1
    44   23   40 1
    45   24   25 1
    46   24   41 1
    47   24   42 1
    48   25   43 1
    49   25   44 1
@<TRIPOS>MOLECULE
CHEMBL301370
   37    38     0     0     0
SMALL
USER_CHARGES

@<TRIPOS>ATOM
      1 C1         -0.0187    1.5258    0.0104 C.3       1 <0>        -0.1460
      2 C2          0.0021   -0.0041    0.0020 C.3       1 <0>        -0.1310
      3 C3          0.7182   -0.4975   -1.2568 C.3       1 <0>         0.1428
      4 H1          1.7105   -0.0498   -1.3110 H         1 <0>         0.1469
      5 C4          0.8443   -1.9987   -1.2095 C.2       1 <0>         0.5191
      6 O1          1.8159   -2.5023   -0.6864 O.2       1 <0>        -0.5007
      7 N1         -0.1090   -2.7875   -1.7405 N.am      1 <0>        -0.6545
      8 C5         -1.2158   -2.2313   -2.3938 C.ar      1 <0>         0.1236
      9 C6         -2.3299   -3.0033   -2.6814 C.ar      1 <0>        -0.0986
     10 C7         -3.4110   -2.4374   -3.3317 C.ar      1 <0>        -0.1325
     11 C8         -3.3862   -1.1019   -3.6978 C.ar      1 <0>         0.1074
     12 C9         -2.2766   -0.3230   -3.4123 C.ar      1 <0>        -0.1349
     13 C10        -1.1942   -0.8846   -2.7595 C.ar      1 <0>         0.1413
     14 N2         -0.0588   -0.1170   -2.4459 N.am      1 <0>        -0.5364
     15 C11         0.3072    0.9317   -3.2093 C.2       1 <0>         0.6591
     16 O2          1.2933    1.5798   -2.9190 O.2       1 <0>        -0.5390
     17 O3         -0.4200    1.2614   -4.2936 O.3       1 <0>        -0.3466
     18 C12         0.0259    2.3843   -5.0568 C.3       1 <0>         0.0912
     19 C13         0.9977    1.9114   -6.1398 C.3       1 <0>        -0.1735
     20 C14        -1.1771    3.0650   -5.7130 C.3       1 <0>        -0.1515
     21 F1         -4.4460   -0.5578   -4.3350 F         1 <0>        -0.1303
     22 H2          1.0039    1.9031    0.0027 H         1 <0>         0.0659
     23 H3         -0.5459    1.8868   -0.8726 H         1 <0>         0.0513
     24 H4         -0.5289    1.8773    0.9072 H         1 <0>         0.0660
     25 H5          0.5293   -0.3651    0.8851 H         1 <0>         0.0941
     26 H6         -1.0205   -0.3814    0.0098 H         1 <0>         0.0754
     27 H7         -0.0280   -3.7516   -1.6701 H         1 <0>         0.4188
     28 H8         -2.3538   -4.0453   -2.3983 H         1 <0>         0.1481
     29 H9         -4.2789   -3.0399   -3.5556 H         1 <0>         0.1478
     30 H10        -2.2571    0.7184   -3.6977 H         1 <0>         0.1600
     31 H11         0.5306    3.0927   -4.4000 H         1 <0>         0.0898
     32 H12         1.3378    2.7679   -6.7220 H         1 <0>         0.0782
     33 H13         1.8547    1.4265   -5.6723 H         1 <0>         0.0621
     34 H14         0.4930    1.2029   -6.7967 H         1 <0>         0.0667
     35 H15        -1.8694    3.4018   -4.9415 H         1 <0>         0.0661
     36 H16        -0.8370    3.9214   -6.2952 H         1 <0>         0.0837
     37 H17        -1.6818    2.3565   -6.3699 H         1 <0>         0.0699
@<TRIPOS>BOND
     1    1    2 1
     2    1   22 1
     3    1   23 1
     4    1   24 1
     5    2    3 1
     6    2   25 1
     7    2   26 1
     8    3    4 1
     9    3   14 1
    10    3    5 1
    11    5    6 2
    12    5    7 am
    13    7    8 1
    14    7   27 1
    15    8   13 ar
    16    8    9 ar
    17    9   10 ar
    18    9   28 1
    19   10   11 ar
    20   10   29 1
    21   11   12 ar
    22   11   21 1
    23   12   13 ar
    24   12   30 1
    25   13   14 1
    26   14   15 am
    27   15   16 2
    28   15   17 1
    29   17   18 1
    30   18   19 1
    31   18   20 1
    32   18   31 1
    33   19   32 1
    34   19   33 1
    35   19   34 1
    36   20   35 1
    37   20   36 1
    38   20   37 1
@<TRIPOS>MOLECULE
CHEMBL56036
   42    44     0     0     0
SMALL
USER_CHARGES

@<TRIPOS>ATOM
      1 C1         -0.1503    0.6286   -0.5286 C.3       1 <0>        -0.0958
      2 C2          0.1499   -0.7979   -0.1464 C.2       1 <0>        -0.1803
      3 C3          0.1937   -1.8026   -1.1250 C.2       1 <0>         0.5544
      4 O1         -0.0109   -1.5281   -2.2952 O.2       1 <0>        -0.4965
      5 N1          0.4637   -3.0725   -0.7641 N.am      1 <0>        -0.6552
      6 H1          0.4943   -3.7680   -1.4396 H         1 <0>         0.4347
      7 C4          0.6917   -3.3845    0.5246 C.2       1 <0>         0.6979
      8 O2          0.9338   -4.5367    0.8280 O.2       1 <0>        -0.5295
      9 N2          0.6562   -2.4404    1.4829 N.am      1 <0>        -0.5175
     10 C5          0.3892   -1.1308    1.1587 C.2       1 <0>         0.1248
     11 S1          0.3496    0.1057    2.4135 S.3       1 <0>         0.0719
     12 C6         -1.0840   -0.2911    3.3579 C.ar      1 <0>        -0.1244
     13 C7         -1.9347   -1.3064    2.9389 C.ar      1 <0>        -0.1205
     14 C8         -3.0574   -1.6148    3.6814 C.ar      1 <0>        -0.0982
     15 C9         -3.3355   -0.9141    4.8409 C.ar      1 <0>        -0.1096
     16 C10        -2.4910    0.0976    5.2606 C.ar      1 <0>        -0.0990
     17 C11        -1.3633    0.4069    4.5261 C.ar      1 <0>        -0.0878
     18 C12         0.9088   -2.8086    2.8782 C.3       1 <0>         0.1341
     19 C13         2.3827   -2.6913    3.1698 C.2       1 <0>        -0.1695
     20 C14         2.8007   -1.9441    4.1819 C.2       1 <0>        -0.0754
     21 C15         4.2479   -1.7331    4.3963 C.ar      1 <0>        -0.1127
     22 C16         4.7023   -0.9512    5.4645 C.ar      1 <0>        -0.0610
     23 C17         6.0670   -0.7846    5.6214 C.ar      1 <0>        -0.1703
     24 C18         6.9304   -1.3902    4.7261 C.ar      1 <0>         0.1005
     25 N3          6.4733   -2.1218    3.7283 N.ar      1 <0>        -0.4823
     26 C19         5.1839   -2.3145    3.5408 C.ar      1 <0>         0.1089
     27 H2          0.7806    1.1463   -0.7603 H         1 <0>         0.0826
     28 H3         -0.8005    0.6413   -1.4033 H         1 <0>         0.0836
     29 H4         -0.6480    1.1301    0.3014 H         1 <0>         0.0870
     30 H5         -1.7183   -1.8538    2.0334 H         1 <0>         0.1171
     31 H6         -3.7193   -2.4037    3.3561 H         1 <0>         0.1293
     32 H7         -4.2142   -1.1572    5.4197 H         1 <0>         0.1302
     33 H8         -2.7115    0.6433    6.1661 H         1 <0>         0.1338
     34 H9         -0.7015    1.1936    4.8572 H         1 <0>         0.1331
     35 H10         0.3539   -2.1402    3.5366 H         1 <0>         0.1048
     36 H11         0.5856   -3.8358    3.0471 H         1 <0>         0.1169
     37 H12         3.0983   -3.2159    2.5541 H         1 <0>         0.1232
     38 H13         2.0839   -1.4897    4.8498 H         1 <0>         0.1274
     39 H14         4.0057   -0.4895    6.1486 H         1 <0>         0.1383
     40 H15         6.4540   -0.1877    6.4340 H         1 <0>         0.1389
     41 H16         7.9960   -1.2615    4.8459 H         1 <0>         0.1578
     42 H17         4.8482   -2.9243    2.7151 H         1 <0>         0.1545
@<TRIPOS>BOND
     1    1    2 1
     2    1   27 1
     3    1   28 1
     4    1   29 1
     5    2   10 2
     6    2    3 1
     7    3    4 2
     8    3    5 am
     9    5    6 1
    10    5    7 am
    11    7    8 2
    12    7    9 am
    13    9   10 1
    14    9   18 1
    15   10   11 1
    16   11   12 1
    17   12   17 ar
    18   12   13 ar
    19   13   14 ar
    20   13   30 1
    21   14   15 ar
    22   14   31 1
    23   15   16 ar
    24   15   32 1
    25   16   17 ar
    26   16   33 1
    27   17   34 1
    28   18   19 1
    29   18   35 1
    30   18   36 1
    31   19   20 2
    32   19   37 1
    33   20   21 1
    34   20   38 1
    35   21   26 ar
    36   21   22 ar
    37   22   23 ar
    38   22   39 1
    39   23   24 ar
    40   23   40 1
    41   24   25 ar
    42   24   41 1
    43   25   26 ar
    44   26   42 1
@<TRIPOS>MOLECULE
CHEMBL192231
   58    62     0     0     0
SMALL
USER_CHARGES

@<TRIPOS>ATOM
      1 C1         -0.0187    1.5258    0.0104 C.3       1 <0>        -0.1708
      2 C2          0.0021   -0.0041    0.0020 C.3       1 <0>         0.1381
      3 N1          0.6878   -0.4765   -1.2033 N.pl3     1 <0>        -0.5793
      4 C3         -0.0293   -0.7094   -2.3768 C.ar      1 <0>         0.3612
      5 C4          0.2596    0.0020   -3.5394 C.ar      1 <0>         0.0920
      6 C5         -0.4387   -0.3009   -4.7037 C.ar      1 <0>        -0.0861
      7 C6         -1.4211   -1.2801   -4.6545 C.ar      1 <0>        -0.1549
      8 C7         -1.6754   -1.9208   -3.4593 C.ar      1 <0>         0.1102
      9 N2         -0.9869   -1.6259   -2.3730 N.ar      1 <0>        -0.4742
     10 N3          1.1872    1.0403   -3.5547 N.am      1 <0>        -0.5382
     11 C8          2.3530    1.0742   -2.9261 C.2       1 <0>         0.5758
     12 O1          3.0368    2.0681   -3.0770 O.2       1 <0>        -0.5219
     13 C9          2.8893    0.0168   -2.0637 C.ar      1 <0>        -0.1963
     14 C10         2.0554   -0.6913   -1.1915 C.ar      1 <0>         0.4119
     15 N4          2.5742   -1.5847   -0.3616 N.ar      1 <0>        -0.4955
     16 C11         3.8622   -1.8675   -0.3601 C.ar      1 <0>         0.1607
     17 C12         4.7345   -1.2396   -1.2302 C.ar      1 <0>        -0.1511
     18 C13         4.2543   -0.2889   -2.0944 C.ar      1 <0>         0.0037
     19 C14         6.1976   -1.6009   -1.2322 C.3       1 <0>        -0.0715
     20 C15         6.4398   -2.7424   -2.2218 C.3       1 <0>         0.0645
     21 O2          7.8271   -3.0850   -2.2236 O.3       1 <0>        -0.3161
     22 C16         8.2135   -4.0877   -3.0539 C.ar      1 <0>         0.1157
     23 C17         7.2624   -4.7250   -3.8583 C.ar      1 <0>        -0.2051
     24 C18         7.6209   -5.7310   -4.6988 C.ar      1 <0>        -0.0568
     25 C19         8.9651   -6.1428   -4.7664 C.ar      1 <0>        -0.0882
     26 C20         9.3601   -7.1775   -5.6256 C.ar      1 <0>        -0.0684
     27 C21        10.6935   -7.5583   -5.6676 C.ar      1 <0>        -0.1397
     28 C22        11.6464   -6.9134   -4.8556 C.ar      1 <0>        -0.0560
     29 C23        11.2810   -5.9107   -4.0185 C.ar      1 <0>        -0.1473
     30 C24         9.9352   -5.5014   -3.9537 C.ar      1 <0>        -0.0140
     31 C25         9.5378   -4.4622   -3.0990 C.ar      1 <0>        -0.1497
     32 C26        11.1157   -8.6454   -6.5681 C.2       1 <0>         0.5192
     33 O3         10.2916   -9.2089   -7.2750 O.co2     1 <0>        -0.6869
     34 O4         12.2903   -8.9846   -6.6086 O.co2     1 <0>        -0.6865
     35 C27         0.8374    2.2197   -4.3503 C.3       1 <0>         0.0656
     36 H1          1.0039    1.9031    0.0027 H         1 <0>         0.0542
     37 H2         -0.5459    1.8868   -0.8726 H         1 <0>         0.0533
     38 H3         -0.5289    1.8773    0.9072 H         1 <0>         0.0714
     39 H4          0.5293   -0.3651    0.8851 H         1 <0>         0.0835
     40 H5         -1.0205   -0.3814    0.0098 H         1 <0>         0.0833
     41 H6         -0.2211    0.2156   -5.6269 H         1 <0>         0.1472
     42 H7         -1.9804   -1.5375   -5.5418 H         1 <0>         0.1473
     43 H8         -2.4485   -2.6734   -3.4122 H         1 <0>         0.1664
     44 H9          4.2428   -2.6025    0.3336 H         1 <0>         0.1693
     45 H10         4.9193    0.2173   -2.7784 H         1 <0>         0.1491
     46 H11         6.7859   -0.7324   -1.5282 H         1 <0>         0.0908
     47 H12         6.4950   -1.9175   -0.2324 H         1 <0>         0.0932
     48 H13         5.8514   -3.6109   -1.9257 H         1 <0>         0.0635
     49 H14         6.1424   -2.4258   -3.2215 H         1 <0>         0.0611
     50 H15         6.2295   -4.4134   -3.8104 H         1 <0>         0.1216
     51 H16         6.8756   -6.2138   -5.3134 H         1 <0>         0.1278
     52 H17         8.6322   -7.6747   -6.2496 H         1 <0>         0.1324
     53 H18        12.6807   -7.2212   -4.8997 H         1 <0>         0.1296
     54 H19        12.0229   -5.4257   -3.4014 H         1 <0>         0.1214
     55 H20        10.2654   -3.9616   -2.4774 H         1 <0>         0.1292
     56 H21         0.2955    2.9309   -3.7269 H         1 <0>         0.0668
     57 H22         1.7474    2.6866   -4.7273 H         1 <0>         0.0937
     58 H23         0.2091    1.9190   -5.1888 H         1 <0>         0.0796
@<TRIPOS>BOND
     1    1    2 1
     2    1   36 1
     3    1   37 1
     4    1   38 1
     5    2    3 1
     6    2   39 1
     7    2   40 1
     8    3   14 1
     9    3    4 1
    10    4    9 ar
    11    4    5 ar
    12    5    6 ar
    13    5   10 1
    14    6    7 ar
    15    6   41 1
    16    7    8 ar
    17    7   42 1
    18    8    9 ar
    19    8   43 1
    20   10   11 am
    21   10   35 1
    22   11   12 2
    23   11   13 1
    24   13   18 ar
    25   13   14 ar
    26   14   15 ar
    27   15   16 ar
    28   16   17 ar
    29   16   44 1
    30   17   18 ar
    31   17   19 1
    32   18   45 1
    33   19   20 1
    34   19   46 1
    35   19   47 1
    36   20   21 1
    37   20   48 1
    38   20   49 1
    39   21   22 1
    40   22   31 ar
    41   22   23 ar
    42   23   24 ar
    43   23   50 1
    44   24   25 ar
    45   24   51 1
    46   25   30 ar
    47   25   26 ar
    48   26   27 ar
    49   26   52 1
    50   27   28 ar
    51   27   32 1
    52   28   29 ar
    53   28   53 1
    54   29   30 ar
    55   29   54 1
    56   30   31 ar
    57   31   55 1
    58   32   33 2
    59   32   34 1
    60   35   56 1
    61   35   57 1
    62   35   58 1
@<TRIPOS>MOLECULE
CHEMBL422123
   42    46     0     0     0
SMALL
USER_CHARGES

@<TRIPOS>ATOM
      1 C1         -0.0178    1.4608    0.0101 C.3       1 <0>         0.0586
      2 N1          0.0021   -0.0041    0.0020 N.am      1 <0>        -0.5350
      3 C2         -1.2352   -0.6443    0.0049 C.ar      1 <0>         0.0775
      4 C3         -2.2607   -0.1334    0.7980 C.ar      1 <0>        -0.0756
      5 C4         -3.4980   -0.7535    0.7687 C.ar      1 <0>        -0.1488
      6 C5         -3.6818   -1.8629   -0.0517 C.ar      1 <0>         0.2290
      7 N2         -2.6813   -2.3337   -0.7859 N.ar      1 <0>        -0.4778
      8 C6         -1.4786   -1.7770   -0.7678 C.ar      1 <0>         0.3718
      9 N3         -0.4496   -2.3766   -1.4946 N.pl3     1 <0>        -0.5525
     10 C7          0.6528   -2.8790   -0.8240 C.ar      1 <0>         0.4146
     11 C8          1.4442   -2.0246   -0.0410 C.ar      1 <0>        -0.1988
     12 C9          2.5089   -2.5686    0.6861 C.ar      1 <0>        -0.0025
     13 C10         2.7602   -3.9251    0.5695 C.ar      1 <0>        -0.1904
     14 C11         1.9610   -4.6961   -0.2544 C.ar      1 <0>         0.1456
     15 N4          0.9499   -4.1668   -0.9153 N.ar      1 <0>        -0.4936
     16 C12         1.1943   -0.5804   -0.0125 C.2       1 <0>         0.5751
     17 O1          2.1653    0.1511    0.0046 O.2       1 <0>        -0.5275
     18 C13        -0.5349   -2.4743   -2.9538 C.3       1 <0>         0.1088
     19 C14         0.5232   -3.3173   -3.6685 C.3       1 <0>        -0.1745
     20 C15         0.5623   -1.7914   -3.7729 C.3       1 <0>        -0.2004
     21 C16        -5.0072   -2.5250   -0.1056 C.2       1 <0>        -0.1441
     22 C17        -6.1711   -2.1418    0.6096 C.2       1 <0>        -0.1752
     23 C18        -7.1490   -3.0036    0.2748 C.2       1 <0>        -0.0151
     24 N5         -6.6458   -3.9058   -0.6165 N.pl3     1 <0>        -0.5566
     25 H1         -7.1412   -4.6363   -1.0188 H         1 <0>         0.4193
     26 C19        -5.3388   -3.6118   -0.8550 C.2       1 <0>         0.0469
     27 H2          1.0048    1.8381    0.0023 H         1 <0>         0.1052
     28 H3         -0.5450    1.8219   -0.8730 H         1 <0>         0.0702
     29 H4         -0.5280    1.8123    0.9069 H         1 <0>         0.0706
     30 H5         -2.0934    0.7308    1.4238 H         1 <0>         0.1469
     31 H6         -4.3105   -0.3815    1.3752 H         1 <0>         0.1466
     32 H7          3.1194   -1.9456    1.3229 H         1 <0>         0.1483
     33 H8          3.5739   -4.3771    1.1173 H         1 <0>         0.1486
     34 H9          2.1685   -5.7509   -0.3585 H         1 <0>         0.1676
     35 H10        -1.5436   -2.4764   -3.3667 H         1 <0>         0.1313
     36 H11         1.2828   -3.7992   -3.0529 H         1 <0>         0.1044
     37 H12         0.2106   -3.8743   -4.5517 H         1 <0>         0.1043
     38 H13         0.2753   -1.3445   -4.7248 H         1 <0>         0.1036
     39 H14         1.3475   -1.2694   -3.2260 H         1 <0>         0.0901
     40 H15        -6.2563   -1.3122    1.2959 H         1 <0>         0.1414
     41 H16        -8.1618   -2.9847    0.6493 H         1 <0>         0.1682
     42 H17        -4.6791   -4.1487   -1.5205 H         1 <0>         0.1736
@<TRIPOS>BOND
     1    1    2 1
     2    1   27 1
     3    1   28 1
     4    1   29 1
     5    2   16 am
     6    2    3 1
     7    3    8 ar
     8    3    4 ar
     9    4    5 ar
    10    4   30 1
    11    5    6 ar
    12    5   31 1
    13    6    7 ar
    14    6   21 1
    15    7    8 ar
    16    8    9 1
    17    9   10 1
    18    9   18 1
    19   10   15 ar
    20   10   11 ar
    21   11   12 ar
    22   11   16 1
    23   12   13 ar
    24   12   32 1
    25   13   14 ar
    26   13   33 1
    27   14   15 ar
    28   14   34 1
    29   16   17 2
    30   18   20 1
    31   18   19 1
    32   18   35 1
    33   19   20 1
    34   19   36 1
    35   19   37 1
    36   20   38 1
    37   20   39 1
    38   21   26 2
    39   21   22 1
    40   22   23 2
    41   22   40 1
    42   23   24 1
    43   23   41 1
    44   24   25 1
    45   24   26 1
    46   26   42 1
@<TRIPOS>MOLECULE
CHEMBL320379
   43    45     0     0     0
SMALL
USER_CHARGES

@<TRIPOS>ATOM
      1 C1         -0.4136    0.8807    0.9264 C.ar      1 <0>        -0.1102
      2 C2          0.0514    0.3700    2.1238 C.ar      1 <0>        -0.1208
      3 C3          1.4019    0.1288    2.2944 C.ar      1 <0>        -0.1012
      4 C4          2.2872    0.3980    1.2674 C.ar      1 <0>        -0.0917
      5 C5          1.8220    0.9079    0.0697 C.ar      1 <0>        -0.0948
      6 C6          0.4717    1.1504   -0.1004 C.ar      1 <0>        -0.1201
      7 C7          3.7595    0.1361    1.4537 C.3       1 <0>         0.0658
      8 O1          4.0614   -1.1990    1.0434 O.3       1 <0>        -0.3373
      9 C8          5.4060   -1.6003    1.3140 C.3       1 <0>         0.1984
     10 C9          5.6604   -2.9520    0.6984 C.2       1 <0>        -0.1687
     11 C10         4.7449   -3.5126   -0.0524 C.2       1 <0>        -0.0687
     12 C11         4.9448   -4.9165   -0.5626 C.3       1 <0>        -0.1355
     13 C12         3.9443   -5.4425   -1.5937 C.3       1 <0>        -0.1717
     14 C13         3.9110   -5.9692   -0.1576 C.3       1 <0>        -0.1667
     15 C14         5.6163   -1.6793    2.8042 C.2       1 <0>        -0.2564
     16 C15         4.5974   -1.3816    3.6608 C.2       1 <0>         0.0114
     17 C16         4.8180   -1.4631    5.0428 C.2       1 <0>        -0.2384
     18 C17         6.0319   -1.8340    5.5126 C.2       1 <0>         0.1522
     19 N1          7.0450   -2.1295    4.6585 N.am      1 <0>        -0.6046
     20 C18         6.8626   -2.0662    3.3258 C.2       1 <0>         0.5226
     21 O2          7.7815   -2.3402    2.5706 O.2       1 <0>        -0.5220
     22 C19         6.3737   -0.5772    0.7159 C.3       1 <0>         0.4273
     23 F1          6.2605    0.6326    1.4094 F         1 <0>        -0.1860
     24 F2          7.6838   -1.0558    0.8240 F         1 <0>        -0.1480
     25 F3          6.0615   -0.3728   -0.6324 F         1 <0>        -0.1753
     26 H1         -1.4692    1.0649    0.7916 H         1 <0>         0.1246
     27 H2         -0.6402    0.1596    2.9262 H         1 <0>         0.1257
     28 H3          1.7653   -0.2696    3.2301 H         1 <0>         0.1215
     29 H4          2.5137    1.1186   -0.7325 H         1 <0>         0.1246
     30 H5          0.1083    1.5491   -1.0360 H         1 <0>         0.1259
     31 H6          4.3329    0.8400    0.8505 H         1 <0>         0.0750
     32 H7          4.0207    0.2611    2.5045 H         1 <0>         0.0787
     33 H8          6.5975   -3.4586    0.8762 H         1 <0>         0.1442
     34 H9          3.8469   -2.9688   -0.3057 H         1 <0>         0.1262
     35 H10         5.9816   -5.2393   -0.6566 H         1 <0>         0.1114
     36 H11         3.1415   -4.7732   -1.9031 H         1 <0>         0.0975
     37 H12         4.3229   -6.1115   -2.3665 H         1 <0>         0.0979
     38 H13         4.2677   -6.9847    0.0144 H         1 <0>         0.0980
     39 H14         3.0863   -5.6464    0.4778 H         1 <0>         0.0964
     40 H15         3.6315   -1.0860    3.2785 H         1 <0>         0.1477
     41 H16         4.0200   -1.2298    5.7322 H         1 <0>         0.1531
     42 H17         6.1965   -1.8952    6.5782 H         1 <0>         0.1710
     43 H18         7.9089   -2.3930    5.0122 H         1 <0>         0.4207
@<TRIPOS>BOND
     1    1    6 ar
     2    1    2 ar
     3    1   26 1
     4    2    3 ar
     5    2   27 1
     6    3    4 ar
     7    3   28 1
     8    4    5 ar
     9    4    7 1
    10    5    6 ar
    11    5   29 1
    12    6   30 1
    13    7    8 1
    14    7   31 1
    15    7   32 1
    16    8    9 1
    17    9   10 1
    18    9   22 1
    19    9   15 1
    20   10   11 2
    21   10   33 1
    22   11   12 1
    23   11   34 1
    24   12   14 1
    25   12   13 1
    26   12   35 1
    27   13   14 1
    28   13   36 1
    29   13   37 1
    30   14   38 1
    31   14   39 1
    32   15   16 2
    33   15   20 1
    34   16   17 1
    35   16   40 1
    36   17   18 2
    37   17   41 1
    38   18   19 1
    39   18   42 1
    40   19   20 am
    41   19   43 1
    42   20   21 2
    43   22   23 1
    44   22   24 1
    45   22   25 1
@<TRIPOS>MOLECULE
CHEMBL320379__1
   43    45     0     0     0
SMALL
USER_CHARGES

@<TRIPOS>ATOM
      1 C1         -0.6571    0.3112    1.1008 C.ar      1 <0>        -0.1102
      2 C2         -0.0960   -0.2922   -0.0092 C.ar      1 <0>        -0.1201
      3 C3          1.0863   -0.9983    0.1115 C.ar      1 <0>        -0.0946
      4 C4          1.7077   -1.1006    1.3421 C.ar      1 <0>        -0.0917
      5 C5          1.1471   -0.4964    2.4519 C.ar      1 <0>        -0.1012
      6 C6         -0.0359    0.2085    2.3314 C.ar      1 <0>        -0.1210
      7 C7          2.9961   -1.8712    1.4739 C.3       1 <0>         0.0685
      8 O1          4.1014   -0.9920    1.2563 O.3       1 <0>        -0.3376
      9 C8          5.3763   -1.5902    1.4985 C.3       1 <0>         0.1973
     10 C9          6.4660   -0.6407    1.0714 C.2       1 <0>        -0.1674
     11 C10         6.1603    0.5655    0.6621 C.2       1 <0>        -0.0687
     12 C11         7.2365    1.4753    0.1281 C.3       1 <0>        -0.1358
     13 C12         6.8587    2.9326   -0.1443 C.3       1 <0>        -0.1725
     14 C13         7.0916    1.9717   -1.3119 C.3       1 <0>        -0.1658
     15 C14         5.5193   -1.8905    2.9683 C.2       1 <0>        -0.2575
     16 C15         4.5257   -1.5543    3.8402 C.2       1 <0>         0.0128
     17 C16         4.6823   -1.8447    5.2028 C.2       1 <0>        -0.2383
     18 C17         5.8104   -2.4521    5.6389 C.2       1 <0>         0.1515
     19 N1          6.7986   -2.7855    4.7697 N.am      1 <0>        -0.6045
     20 C18         6.6752   -2.5250    3.4543 C.2       1 <0>         0.5214
     21 O2          7.5699   -2.8359    2.6843 O.2       1 <0>        -0.5214
     22 C19         5.4900   -2.8897    0.6991 C.3       1 <0>         0.4289
     23 F1          5.1880   -2.6391   -0.6438 F         1 <0>        -0.1754
     24 F2          6.7942   -3.3861    0.7989 F         1 <0>        -0.1457
     25 F3          4.5919   -3.8323    1.2110 F         1 <0>        -0.1856
     26 H1         -1.5784    0.8666    1.0056 H         1 <0>         0.1246
     27 H2         -0.5815   -0.2123   -0.9706 H         1 <0>         0.1258
     28 H3          1.5243   -1.4704   -0.7555 H         1 <0>         0.1246
     29 H4          1.6324   -0.5766    3.4133 H         1 <0>         0.1215
     30 H5         -0.4741    0.6802    3.1985 H         1 <0>         0.1256
     31 H6          3.0631   -2.2985    2.4744 H         1 <0>         0.0767
     32 H7          3.0178   -2.6719    0.7347 H         1 <0>         0.0749
     33 H8          7.4988   -0.9548    1.1029 H         1 <0>         0.1428
     34 H9          5.1371    0.9081    0.7074 H         1 <0>         0.1262
     35 H10         8.2442    1.2760    0.4927 H         1 <0>         0.1108
     36 H11         5.8317    3.2334    0.0628 H         1 <0>         0.0971
     37 H12         7.6178    3.6925    0.0412 H         1 <0>         0.0972
     38 H13         8.0040    2.0994   -1.8945 H         1 <0>         0.0989
     39 H14         6.2178    1.6403   -1.8729 H         1 <0>         0.0977
     40 H15         3.6284   -1.0695    3.4849 H         1 <0>         0.1460
     41 H16         3.9034   -1.5836    5.9040 H         1 <0>         0.1529
     42 H17         5.9260   -2.6735    6.6896 H         1 <0>         0.1708
     43 H18         7.6008   -3.2198    5.0993 H         1 <0>         0.4206
@<TRIPOS>BOND
     1    1    6 ar
     2    1    2 ar
     3    1   26 1
     4    2    3 ar
     5    2   27 1
     6    3    4 ar
     7    3   28 1
     8    4    5 ar
     9    4    7 1
    10    5    6 ar
    11    5   29 1
    12    6   30 1
    13    7    8 1
    14    7   31 1
    15    7   32 1
    16    8    9 1
    17    9   10 1
    18    9   22 1
    19    9   15 1
    20   10   11 2
    21   10   33 1
    22   11   12 1
    23   11   34 1
    24   12   14 1
    25   12   13 1
    26   12   35 1
    27   13   14 1
    28   13   36 1
    29   13   37 1
    30   14   38 1
    31   14   39 1
    32   15   16 2
    33   15   20 1
    34   16   17 1
    35   16   40 1
    36   17   18 2
    37   17   41 1
    38   18   19 1
    39   18   42 1
    40   19   20 am
    41   19   43 1
    42   20   21 2
    43   22   23 1
    44   22   24 1
    45   22   25 1
@<TRIPOS>MOLECULE
CHEMBL420519
   33    36     0     0     0
SMALL
USER_CHARGES

@<TRIPOS>ATOM
      1 C1         -0.0184    1.5028    0.0103 C.3       1 <0>        -0.1131
      2 C2          0.0021   -0.0041    0.0020 C.2       1 <0>         0.1647
      3 C3         -1.1649   -0.6879    0.0039 C.2       1 <0>        -0.2851
      4 C4         -1.1562   -2.0905   -0.0043 C.2       1 <0>        -0.2539
      5 C5          0.0406   -2.7515   -0.0141 C.2       1 <0>         0.1681
      6 C6          1.2399   -2.0055   -0.0158 C.2       1 <0>         0.5261
      7 N1          1.1937   -0.6596   -0.0129 N.am      1 <0>        -0.5930
      8 O1          2.3169   -2.5801   -0.0246 O.2       1 <0>        -0.5422
      9 N2          0.0768   -4.1514   -0.0219 N.pl3     1 <0>        -0.7279
     10 C7          1.3641   -4.8508   -0.0324 C.3       1 <0>         0.2294
     11 C8          1.1272   -6.3390   -0.0392 C.2       1 <0>         0.2445
     12 N3          1.0104   -7.0674   -1.1085 N.2       1 <0>        -0.4439
     13 C9          0.8048   -8.3603   -0.7380 C.ar      1 <0>         0.0381
     14 C10         0.6149   -9.5502   -1.4451 C.ar      1 <0>         0.0233
     15 C11         0.4275  -10.7303   -0.7591 C.ar      1 <0>        -0.0983
     16 C12         0.4259  -10.7437    0.6280 C.ar      1 <0>        -0.0684
     17 C13         0.6119   -9.5758    1.3393 C.ar      1 <0>        -0.0104
     18 C14         0.8030   -8.3782    0.6644 C.ar      1 <0>         0.0309
     19 O2          1.0123   -7.1027    1.0587 O.3       1 <0>        -0.1922
     20 Cl1         0.6068   -9.6046    3.0750 Cl        1 <0>        -0.0375
     21 Cl2         0.6144   -9.5418   -3.1811 Cl        1 <0>        -0.0300
     22 C15        -2.4943   -1.3985    0.0064 C.3       1 <0>         0.1106
     23 H1          1.0042    1.8801    0.0026 H         1 <0>         0.0681
     24 H2         -0.5455    1.8639   -0.8728 H         1 <0>         0.0877
     25 H3         -0.5286    1.8543    0.9071 H         1 <0>         0.0875
     26 H4         -0.7504   -4.6580   -0.0203 H         1 <0>         0.4107
     27 H5          1.9240   -4.5679   -0.9238 H         1 <0>         0.1184
     28 H6          1.9333   -4.5776    0.8561 H         1 <0>         0.1040
     29 H7          0.2806  -11.6507   -1.3047 H         1 <0>         0.1612
     30 H8          0.2777  -11.6747    1.1550 H         1 <0>         0.1640
     31 H9         -3.0680   -1.4078    0.9331 H         1 <0>         0.1172
     32 H10        -3.0772   -1.3972   -0.9147 H         1 <0>         0.1175
     33 H11         2.0201   -0.1517   -0.0180 H         1 <0>         0.4241
@<TRIPOS>BOND
     1    1    2 1
     2    1   23 1
     3    1   24 1
     4    1   25 1
     5    2    7 1
     6    2    3 2
     7    3   22 1
     8    3    4 1
     9    4    5 2
    10    4   22 1
    11    5    6 1
    12    5    9 1
    13    6    7 am
    14    6    8 2
    15    7   33 1
    16    9   10 1
    17    9   26 1
    18   10   11 1
    19   10   27 1
    20   10   28 1
    21   11   19 1
    22   11   12 2
    23   12   13 1
    24   13   18 ar
    25   13   14 ar
    26   14   15 ar
    27   14   21 1
    28   15   16 ar
    29   15   29 1
    30   16   17 ar
    31   16   30 1
    32   17   18 ar
    33   17   20 1
    34   18   19 1
    35   22   31 1
    36   22   32 1
@<TRIPOS>MOLECULE
CHEMBL420519__1
   33    36     0     0     0
SMALL
USER_CHARGES

@<TRIPOS>ATOM
      1 C1         -0.0184    1.5028    0.0103 C.3       1 <0>        -0.0982
      2 C2          0.0021   -0.0041    0.0020 C.ar      1 <0>         0.1618
      3 C3          0.0056   -0.6776   -1.2033 C.ar      1 <0>        -0.2217
      4 C4          0.0249   -2.0652   -1.2062 C.ar      1 <0>        -0.2507
      5 C5          0.0402   -2.7292    0.0134 C.ar      1 <0>         0.2198
      6 C6          0.0357   -1.9810    1.1911 C.ar      1 <0>         0.2576
      7 N1          0.0219   -0.6605    1.1472 N.ar      1 <0>        -0.4519
      8 O1          0.0506   -2.6149    2.3918 O.3       1 <0>        -0.4698
      9 N2          0.0595   -4.1279    0.0605 N.pl3     1 <0>        -0.7373
     10 C7          0.4037   -4.8142    1.3082 C.3       1 <0>         0.2134
     11 C8          0.3516   -6.3047    1.0926 C.2       1 <0>         0.2416
     12 N3          1.3555   -7.0353    0.7106 N.2       1 <0>        -0.4417
     13 C9          0.9466   -8.3299    0.6209 C.ar      1 <0>         0.0367
     14 C10         1.5826   -9.5224    0.2665 C.ar      1 <0>         0.0236
     15 C11         0.8734  -10.7037    0.2748 C.ar      1 <0>        -0.0977
     16 C12        -0.4669  -10.7157    0.6321 C.ar      1 <0>        -0.0663
     17 C13        -1.1079   -9.5453    0.9840 C.ar      1 <0>        -0.0113
     18 C14        -0.4085   -8.3464    0.9820 C.ar      1 <0>         0.0333
     19 O2         -0.7374   -7.0685    1.2732 O.3       1 <0>        -0.1901
     20 Cl1        -2.7858   -9.5725    1.4283 Cl        1 <0>        -0.0354
     21 Cl2         3.2593   -9.5156   -0.1830 Cl        1 <0>        -0.0289
     22 C15         0.0086   -1.3698   -2.5421 C.3       1 <0>         0.0994
     23 H1          1.0042    1.8801    0.0026 H         1 <0>         0.0769
     24 H2         -0.5455    1.8639   -0.8728 H         1 <0>         0.0768
     25 H3         -0.5286    1.8543    0.9071 H         1 <0>         0.0752
     26 H4          0.9382   -2.7862    2.7352 H         1 <0>         0.3937
     27 H5         -0.1551   -4.6429   -0.7330 H         1 <0>         0.4091
     28 H6          1.4091   -4.5265    1.6157 H         1 <0>         0.1051
     29 H7         -0.3079   -4.5343    2.0850 H         1 <0>         0.1224
     30 H8          1.3640  -11.6260    0.0011 H         1 <0>         0.1619
     31 H9         -1.0127  -11.6476    0.6347 H         1 <0>         0.1648
     32 H10        -0.9184   -1.3819   -3.1154 H         1 <0>         0.1132
     33 H11         0.9298   -1.3561   -3.1246 H         1 <0>         0.1146
@<TRIPOS>BOND
     1    1    2 1
     2    1   23 1
     3    1   24 1
     4    1   25 1
     5    2    7 ar
     6    2    3 ar
     7    3   22 1
     8    3    4 ar
     9    4    5 ar
    10    4   22 1
    11    5    6 ar
    12    5    9 1
    13    6    7 ar
    14    6    8 1
    15    8   26 1
    16    9   10 1
    17    9   27 1
    18   10   11 1
    19   10   28 1
    20   10   29 1
    21   11   19 1
    22   11   12 2
    23   12   13 1
    24   13   18 ar
    25   13   14 ar
    26   14   15 ar
    27   14   21 1
    28   15   16 ar
    29   15   30 1
    30   16   17 ar
    31   16   31 1
    32   17   18 ar
    33   17   20 1
    34   18   19 1
    35   22   32 1
    36   22   33 1
@<TRIPOS>MOLECULE
CHEMBL121835
   39    41     0     0     0
SMALL
USER_CHARGES

@<TRIPOS>ATOM
      1 C1         -0.0187    1.5258    0.0104 C.3       1 <0>        -0.1491
      2 C2          0.0021   -0.0041    0.0020 C.3       1 <0>        -0.0703
      3 C3         -1.4117   -0.5257    0.0127 C.2       1 <0>        -0.1311
      4 C4         -2.0964   -0.6700    1.2283 C.2       1 <0>        -0.1334
      5 C5         -3.3792   -1.1443    1.2205 C.2       1 <0>         0.1015
      6 C6         -3.9830   -1.4773   -0.0120 C.2       1 <0>         0.5131
      7 N1         -3.2953   -1.3259   -1.1599 N.am      1 <0>        -0.5916
      8 C7         -2.0214   -0.8491   -1.1501 C.2       1 <0>         0.0901
      9 C8         -1.2783   -0.6846   -2.4508 C.3       1 <0>        -0.1197
     10 O1         -5.1271   -1.9024   -0.0367 O.2       1 <0>        -0.5535
     11 N2         -4.0851   -1.2984    2.4201 N.pl3     1 <0>        -0.7277
     12 C9         -5.4588   -1.8073    2.4015 C.3       1 <0>         0.2219
     13 C10        -5.9877   -1.8773    3.8109 C.2       1 <0>        -0.1450
     14 C11        -6.6472   -0.9334    4.4976 C.2       1 <0>        -0.1179
     15 C12        -7.0734   -1.2108    5.8614 C.ar      1 <0>        -0.0948
     16 C13        -7.7735   -0.3703    6.7591 C.ar      1 <0>        -0.0730
     17 C14        -8.0911   -0.8000    8.0091 C.ar      1 <0>        -0.1232
     18 C15        -7.7438   -2.0700    8.4503 C.ar      1 <0>        -0.0923
     19 C16        -7.0605   -2.9206    7.6044 C.ar      1 <0>        -0.0796
     20 C17        -6.7327   -2.4966    6.3343 C.ar      1 <0>        -0.1112
     21 S1         -5.8921   -3.2377    4.9589 S.3       1 <0>         0.0376
     22 H1          1.0039    1.9031    0.0027 H         1 <0>         0.0580
     23 H2         -0.5459    1.8868   -0.8726 H         1 <0>         0.0545
     24 H3         -0.5289    1.8773    0.9072 H         1 <0>         0.0559
     25 H4          0.5123   -0.3556   -0.8948 H         1 <0>         0.0744
     26 H5          0.5293   -0.3651    0.8851 H         1 <0>         0.0736
     27 H6         -1.6159   -0.4098    2.1599 H         1 <0>         0.1301
     28 H7         -0.7443   -1.6060   -2.6831 H         1 <0>         0.0823
     29 H8         -1.9873   -0.4644   -3.2489 H         1 <0>         0.0717
     30 H9         -0.5659    0.1354   -2.3610 H         1 <0>         0.0908
     31 H10        -3.7145   -1.5560   -2.0038 H         1 <0>         0.4160
     32 H11        -3.6646   -1.0682    3.2633 H         1 <0>         0.4058
     33 H12        -6.0857   -1.1392    1.8109 H         1 <0>         0.0909
     34 H13        -5.4713   -2.8032    1.9588 H         1 <0>         0.0844
     35 H14        -6.8597    0.0232    4.0437 H         1 <0>         0.1383
     36 H15        -8.0584    0.6239    6.4478 H         1 <0>         0.1259
     37 H16        -8.6256   -0.1382    8.6745 H         1 <0>         0.1287
     38 H17        -8.0059   -2.3899    9.4480 H         1 <0>         0.1356
     39 H18        -6.7843   -3.9108    7.9355 H         1 <0>         0.1322
@<TRIPOS>BOND
     1    1    2 1
     2    1   22 1
     3    1   23 1
     4    1   24 1
     5    2   25 1
     6    2   26 1
     7    2    3 1
     8    3    8 2
     9    3    4 1
    10    4   27 1
    11    4    5 2
    12    5    6 1
    13    5   11 1
    14    6   10 2
    15    6    7 am
    16    7   31 1
    17    7    8 1
    18    8    9 1
    19    9   28 1
    20    9   29 1
    21    9   30 1
    22   11   12 1
    23   11   32 1
    24   12   13 1
    25   12   33 1
    26   12   34 1
    27   13   21 1
    28   13   14 2
    29   14   15 1
    30   14   35 1
    31   15   20 ar
    32   15   16 ar
    33   16   17 ar
    34   16   36 1
    35   17   18 ar
    36   17   37 1
    37   18   19 ar
    38   18   38 1
    39   19   20 ar
    40   19   39 1
    41   20   21 1
@<TRIPOS>MOLECULE
CHEMBL81319
   41    44     0     0     0
SMALL
USER_CHARGES

@<TRIPOS>ATOM
      1 C1         -0.0187    1.5258    0.0104 C.3       1 <0>        -0.1712
      2 C2          0.0021   -0.0041    0.0020 C.3       1 <0>         0.1387
      3 N1         -1.3723   -0.5112    0.0124 N.pl3     1 <0>        -0.5788
      4 C3         -2.0200   -0.7545    1.2117 C.ar      1 <0>         0.4176
      5 C4         -3.2161   -0.0803    1.5076 C.ar      1 <0>        -0.2006
      6 C5         -3.8970   -0.4029    2.6867 C.ar      1 <0>        -0.0016
      7 C6         -3.3375   -1.3439    3.5340 C.ar      1 <0>        -0.1931
      8 C7         -2.1325   -1.9320    3.1961 C.ar      1 <0>         0.1495
      9 N2         -1.5177   -1.6302    2.0690 N.ar      1 <0>        -0.5010
     10 C8         -3.7299    0.9731    0.6280 C.2       1 <0>         0.5759
     11 O1         -4.2299    1.9448    1.1610 O.2       1 <0>        -0.5286
     12 N3         -3.6984    0.9605   -0.6964 N.am      1 <0>        -0.5360
     13 C9         -3.2055   -0.0591   -1.5095 C.ar      1 <0>         0.0754
     14 C10        -2.0454   -0.7488   -1.1851 C.ar      1 <0>         0.3692
     15 N4         -1.5636   -1.6646   -2.0145 N.ar      1 <0>        -0.4811
     16 C11        -2.1808   -1.9787   -3.1468 C.ar      1 <0>         0.2304
     17 C12        -3.3692   -1.3497   -3.5054 C.ar      1 <0>        -0.1492
     18 C13        -3.8875   -0.3833   -2.6795 C.ar      1 <0>        -0.0755
     19 C14        -1.5980   -3.0096   -4.0387 C.2       1 <0>        -0.1442
     20 C15        -2.1293   -3.4505   -5.2782 C.2       1 <0>        -0.1751
     21 C16        -1.2957   -4.3909   -5.7597 C.2       1 <0>        -0.0152
     22 N5         -0.2696   -4.5549   -4.8755 N.pl3     1 <0>        -0.5566
     23 H1          0.4710   -5.1725   -4.9805 H         1 <0>         0.4192
     24 C17        -0.4490   -3.7078   -3.8259 C.2       1 <0>         0.0467
     25 C18        -4.2381    2.1402   -1.3771 C.3       1 <0>         0.0593
     26 H2          1.0039    1.9031    0.0027 H         1 <0>         0.0713
     27 H3         -0.5459    1.8868   -0.8726 H         1 <0>         0.0544
     28 H4         -0.5289    1.8773    0.9072 H         1 <0>         0.0536
     29 H5          0.5123   -0.3556   -0.8948 H         1 <0>         0.0828
     30 H6          0.5293   -0.3651    0.8851 H         1 <0>         0.0824
     31 H7         -4.8365    0.0710    2.9300 H         1 <0>         0.1475
     32 H8         -3.8379   -1.6161    4.4516 H         1 <0>         0.1481
     33 H9         -1.6867   -2.6512    3.8673 H         1 <0>         0.1670
     34 H10        -3.8778   -1.6208   -4.4187 H         1 <0>         0.1460
     35 H11        -4.8068    0.1210   -2.9384 H         1 <0>         0.1455
     36 H12        -3.0353   -3.0971   -5.7481 H         1 <0>         0.1413
     37 H13        -1.4186   -4.9263   -6.6896 H         1 <0>         0.1682
     38 H14         0.2045   -3.6086   -2.9718 H         1 <0>         0.1735
     39 H15        -4.5890    2.8585   -0.6362 H         1 <0>         0.1050
     40 H16        -3.4576    2.5974   -1.9853 H         1 <0>         0.0692
     41 H17        -5.0692    1.8423   -2.0164 H         1 <0>         0.0701
@<TRIPOS>BOND
     1    1    2 1
     2    1   26 1
     3    1   27 1
     4    1   28 1
     5    2    3 1
     6    2   29 1
     7    2   30 1
     8    3   14 1
     9    3    4 1
    10    4    9 ar
    11    4    5 ar
    12    5    6 ar
    13    5   10 1
    14    6    7 ar
    15    6   31 1
    16    7    8 ar
    17    7   32 1
    18    8    9 ar
    19    8   33 1
    20   10   11 2
    21   10   12 am
    22   12   13 1
    23   12   25 1
    24   13   18 ar
    25   13   14 ar
    26   14   15 ar
    27   15   16 ar
    28   16   17 ar
    29   16   19 1
    30   17   18 ar
    31   17   34 1
    32   18   35 1
    33   19   24 2
    34   19   20 1
    35   20   21 2
    36   20   36 1
    37   21   22 1
    38   21   37 1
    39   22   23 1
    40   22   24 1
    41   24   38 1
    42   25   39 1
    43   25   40 1
    44   25   41 1
@<TRIPOS>MOLECULE
CHEMBL340145
   34    36     0     0     0
SMALL
USER_CHARGES

@<TRIPOS>ATOM
      1 C1         -0.0167    1.3798    0.0096 C.ar      1 <0>        -0.1143
      2 C2          1.1670    2.0963    0.0022 C.ar      1 <0>        -0.1220
      3 C3          2.3787    1.4345   -0.0134 C.ar      1 <0>        -0.1056
      4 C4          2.4026    0.0420   -0.0212 C.ar      1 <0>        -0.0505
      5 C5          1.2053   -0.6761   -0.0130 C.ar      1 <0>        -0.0737
      6 C6          0.0021   -0.0041    0.0020 C.ar      1 <0>        -0.1179
      7 C7          1.2471   -2.1813   -0.0197 C.3       1 <0>        -0.0812
      8 C8          2.4373   -2.6628   -0.8470 C.3       1 <0>        -0.0930
      9 C9          3.6988   -1.9650   -0.4211 C.2       1 <0>        -0.1049
     10 C10         3.6830   -0.6961   -0.0387 C.2       1 <0>        -0.0877
     11 C11         4.9602   -0.0112    0.3743 C.3       1 <0>        -0.0643
     12 S1          5.4992    1.1103   -0.9456 S.3       1 <0>         0.0253
     13 C12         6.9832    1.8242   -0.3189 C.ar      1 <0>         0.3575
     14 N1          7.6357    2.7105   -1.0572 N.ar      1 <0>        -0.5583
     15 C13         8.7578    3.2676   -0.6128 C.ar      1 <0>         0.4681
     16 C14         9.2419    2.9061    0.6457 C.ar      1 <0>        -0.2871
     17 C15         8.5310    1.9776    1.3843 C.ar      1 <0>         0.2655
     18 N2          7.4160    1.4656    0.8813 N.ar      1 <0>        -0.5646
     19 Cl1         9.0887    1.4930    2.9552 Cl        1 <0>        -0.0094
     20 N3          9.4374    4.1934   -1.3878 N.pl3     1 <0>        -0.8255
     21 H1         -0.9610    1.9037    0.0260 H         1 <0>         0.1225
     22 H2          1.1431    3.1760    0.0082 H         1 <0>         0.1235
     23 H3          3.3028    1.9935   -0.0198 H         1 <0>         0.1310
     24 H4         -0.9256   -0.5570    0.0078 H         1 <0>         0.1239
     25 H5          1.3457   -2.5455    1.0030 H         1 <0>         0.0795
     26 H6          0.3245   -2.5674   -0.4532 H         1 <0>         0.0811
     27 H7          2.5580   -3.7374   -0.7106 H         1 <0>         0.0823
     28 H8          2.2500   -2.4543   -1.9004 H         1 <0>         0.0824
     29 H9          4.6332   -2.5065   -0.4268 H         1 <0>         0.1227
     30 H10         4.7881    0.5585    1.2875 H         1 <0>         0.1055
     31 H11         5.7324   -0.7596    0.5531 H         1 <0>         0.1051
     32 H12        10.1510    3.3412    1.0336 H         1 <0>         0.1543
     33 H13         9.0950    4.4393   -2.2614 H         1 <0>         0.4133
     34 H14        10.2557    4.5956   -1.0567 H         1 <0>         0.4166
@<TRIPOS>BOND
     1    1    6 ar
     2    1    2 ar
     3    1   21 1
     4    2    3 ar
     5    2   22 1
     6    3    4 ar
     7    3   23 1
     8    4   10 1
     9    4    5 ar
    10    5    6 ar
    11    5    7 1
    12    6   24 1
    13    7    8 1
    14    7   25 1
    15    7   26 1
    16    8    9 1
    17    8   27 1
    18    8   28 1
    19    9   10 2
    20    9   29 1
    21   10   11 1
    22   11   12 1
    23   11   30 1
    24   11   31 1
    25   12   13 1
    26   13   18 ar
    27   13   14 ar
    28   14   15 ar
    29   15   16 ar
    30   15   20 1
    31   16   17 ar
    32   16   32 1
    33   17   18 ar
    34   17   19 1
    35   20   33 1
    36   20   34 1
@<TRIPOS>MOLECULE
CHEMBL156340
   44    46     0     0     0
SMALL
USER_CHARGES

@<TRIPOS>ATOM
      1 C1         -0.4138    1.0657    0.1515 C.3       1 <0>        -0.1004
      2 C2         -0.9311    1.5934   -1.1619 C.2       1 <0>        -0.2463
      3 C3         -0.9761    2.9368   -1.4002 C.2       1 <0>         0.1857
      4 N1         -1.4339    3.3937   -2.5629 N.2       1 <0>        -0.5241
      5 C4         -1.8521    2.5721   -3.5065 C.2       1 <0>         0.3689
      6 N2         -1.8309    1.2226   -3.3246 N.am      1 <0>        -0.6151
      7 C5         -1.3696    0.7100   -2.1637 C.2       1 <0>         0.5336
      8 O1         -1.3384   -0.4966   -1.9858 O.2       1 <0>        -0.5286
      9 S1         -2.4486    3.2318   -5.0275 S.3       1 <0>        -0.0229
     10 C6         -2.2929    5.0270   -4.8184 C.3       1 <0>        -0.0529
     11 C7         -0.8141    5.3996   -4.6944 C.3       1 <0>        -0.1150
     12 C8         -0.6828    6.9137   -4.5180 C.3       1 <0>        -0.1133
     13 C9         -1.2874    7.6229   -5.7314 C.3       1 <0>        -0.1241
     14 C10        -2.7662    7.2502   -5.8554 C.3       1 <0>        -0.1102
     15 C11        -2.8975    5.7361   -6.0318 C.3       1 <0>        -0.1041
     16 C12        -0.5068    3.9041   -0.3443 C.3       1 <0>        -0.0321
     17 C13        -1.6996    4.5648    0.2975 C.ar      1 <0>        -0.1552
     18 C14        -2.2850    5.6679   -0.2996 C.ar      1 <0>         0.1484
     19 C15        -3.3809    6.2742    0.2911 C.ar      1 <0>        -0.1676
     20 C16        -3.8903    5.7782    1.4763 C.ar      1 <0>        -0.0588
     21 C17        -3.3064    4.6771    2.0736 C.ar      1 <0>        -0.1651
     22 C18        -2.2142    4.0655    1.4815 C.ar      1 <0>         0.1355
     23 F1         -1.6473    2.9855    2.0624 F         1 <0>        -0.1236
     24 F2         -1.7869    6.1532   -1.4579 F         1 <0>        -0.1162
     25 H1         -0.3627   -0.0224    0.1111 H         1 <0>         0.0773
     26 H2          0.5812    1.4694    0.3388 H         1 <0>         0.0704
     27 H3         -1.0857    1.3683    0.9547 H         1 <0>         0.0801
     28 H4         -2.1424    0.6316   -4.0279 H         1 <0>         0.4208
     29 H5         -2.8220    5.3349   -3.9166 H         1 <0>         0.1085
     30 H6         -0.3834    4.8944   -3.8299 H         1 <0>         0.0857
     31 H7         -0.2850    5.0916   -5.5962 H         1 <0>         0.0673
     32 H8         -1.2119    7.2217   -3.6162 H         1 <0>         0.0687
     33 H9          0.3707    7.1792   -4.4297 H         1 <0>         0.0653
     34 H10        -1.1938    8.7016   -5.6057 H         1 <0>         0.0650
     35 H11        -0.7583    7.3149   -6.6332 H         1 <0>         0.0633
     36 H12        -3.2953    7.5582   -4.9536 H         1 <0>         0.0665
     37 H13        -3.1969    7.7555   -6.7199 H         1 <0>         0.0710
     38 H14        -2.3683    5.4282   -6.9336 H         1 <0>         0.0747
     39 H15        -3.9510    5.4707   -6.1201 H         1 <0>         0.0741
     40 H16         0.0623    3.3663    0.4140 H         1 <0>         0.1069
     41 H17         0.1262    4.6638   -0.8029 H         1 <0>         0.1053
     42 H18        -3.8375    7.1351   -0.1744 H         1 <0>         0.1435
     43 H19        -4.7451    6.2517    1.9362 H         1 <0>         0.1449
     44 H20        -3.7049    4.2909    3.0001 H         1 <0>         0.1445
@<TRIPOS>BOND
     1    1   25 1
     2    1   26 1
     3    1   27 1
     4    1    2 1
     5    2    7 1
     6    2    3 2
     7    3   16 1
     8    3    4 1
     9    4    5 2
    10    5    9 1
    11    5    6 1
    12    6   28 1
    13    6    7 am
    14    7    8 2
    15    9   10 1
    16   10   15 1
    17   10   11 1
    18   10   29 1
    19   11   12 1
    20   11   30 1
    21   11   31 1
    22   12   13 1
    23   12   32 1
    24   12   33 1
    25   13   14 1
    26   13   34 1
    27   13   35 1
    28   14   15 1
    29   14   36 1
    30   14   37 1
    31   15   38 1
    32   15   39 1
    33   16   17 1
    34   16   40 1
    35   16   41 1
    36   17   22 ar
    37   17   18 ar
    38   18   19 ar
    39   18   24 1
    40   19   20 ar
    41   19   42 1
    42   20   21 ar
    43   20   43 1
    44   21   22 ar
    45   21   44 1
    46   22   23 1
@<TRIPOS>MOLECULE
CHEMBL156340__1
   44    46     0     0     0
SMALL
USER_CHARGES

@<TRIPOS>ATOM
      1 C1          0.3701    1.2108   -0.8853 C.3       1 <0>        -0.1032
      2 C2         -0.7796    1.8077   -1.6554 C.2       1 <0>        -0.2298
      3 C3         -1.1922    3.0685   -1.4043 C.2       1 <0>         0.1550
      4 N1         -2.2363    3.5842   -2.1170 N.pl3     1 <0>        -0.5942
      5 C4         -2.8553    2.8362   -3.0700 C.2       1 <0>         0.3994
      6 N2         -2.4657    1.6035   -3.3283 N.2       1 <0>        -0.5805
      7 C5         -1.4418    1.0559   -2.6598 C.2       1 <0>         0.5177
      8 O1         -1.0841   -0.0851   -2.9099 O.2       1 <0>        -0.5042
      9 S1         -4.2010    3.5265   -3.9739 S.3       1 <0>        -0.0272
     10 C6         -4.6971    2.1981   -5.1052 C.3       1 <0>        -0.0517
     11 C7         -5.2337    1.0144   -4.2978 C.3       1 <0>        -0.1182
     12 C8         -5.6522   -0.1060   -5.2519 C.3       1 <0>        -0.1139
     13 C9         -6.7444    0.4066   -6.1927 C.3       1 <0>        -0.1239
     14 C10        -6.2078    1.5903   -7.0001 C.3       1 <0>        -0.1113
     15 C11        -5.7894    2.7107   -6.0460 C.3       1 <0>        -0.1030
     16 C12        -0.5078    3.8975   -0.3482 C.3       1 <0>        -0.0472
     17 C13         0.3512    4.9442   -1.0097 C.ar      1 <0>        -0.1639
     18 C14         1.7009    4.7087   -1.2074 C.ar      1 <0>         0.1425
     19 C15         2.4893    5.6712   -1.8153 C.ar      1 <0>        -0.1567
     20 C16         1.9291    6.8665   -2.2246 C.ar      1 <0>        -0.0556
     21 C17         0.5817    7.1029   -2.0273 C.ar      1 <0>        -0.1561
     22 C18        -0.2099    6.1394   -1.4252 C.ar      1 <0>         0.1278
     23 F1         -1.5281    6.3682   -1.2379 F         1 <0>        -0.1308
     24 F2          2.2488    3.5406   -0.8070 F         1 <0>        -0.1195
     25 H1          0.4916    0.1647   -1.1665 H         1 <0>         0.0825
     26 H2          1.2845    1.7575   -1.1156 H         1 <0>         0.0788
     27 H3          0.1656    1.2784    0.1832 H         1 <0>         0.0692
     28 H4         -2.5387    4.4891   -1.9426 H         1 <0>         0.4230
     29 H5         -3.8348    1.8779   -5.6900 H         1 <0>         0.1090
     30 H6         -4.4556    0.6492   -3.6275 H         1 <0>         0.0878
     31 H7         -6.0960    1.3346   -3.7130 H         1 <0>         0.0684
     32 H8         -4.7898   -0.4262   -5.8367 H         1 <0>         0.0664
     33 H9         -6.0344   -0.9493   -4.6767 H         1 <0>         0.0673
     34 H10        -7.0425   -0.3916   -6.8724 H         1 <0>         0.0658
     35 H11        -7.6068    0.7268   -5.6079 H         1 <0>         0.0637
     36 H12        -5.3455    1.2701   -7.5849 H         1 <0>         0.0673
     37 H13        -6.9860    1.9555   -7.6703 H         1 <0>         0.0718
     38 H14        -6.6517    3.0309   -5.4612 H         1 <0>         0.0750
     39 H15        -5.4071    3.5540   -6.6212 H         1 <0>         0.0747
     40 H16        -1.2584    4.3841    0.2746 H         1 <0>         0.1071
     41 H17         0.1164    3.2536    0.2713 H         1 <0>         0.1240
     42 H18         3.5424    5.4879   -1.9694 H         1 <0>         0.1489
     43 H19         2.5448    7.6166   -2.6987 H         1 <0>         0.1495
     44 H20         0.1452    8.0376   -2.3469 H         1 <0>         0.1485
@<TRIPOS>BOND
     1    1   25 1
     2    1   26 1
     3    1   27 1
     4    1    2 1
     5    2    7 1
     6    2    3 2
     7    3   16 1
     8    3    4 1
     9    4    5 1
    10    4   28 1
    11    5    9 1
    12    5    6 2
    13    6    7 1
    14    7    8 2
    15    9   10 1
    16   10   15 1
    17   10   11 1
    18   10   29 1
    19   11   12 1
    20   11   30 1
    21   11   31 1
    22   12   13 1
    23   12   32 1
    24   12   33 1
    25   13   14 1
    26   13   34 1
    27   13   35 1
    28   14   15 1
    29   14   36 1
    30   14   37 1
    31   15   38 1
    32   15   39 1
    33   16   17 1
    34   16   40 1
    35   16   41 1
    36   17   22 ar
    37   17   18 ar
    38   18   19 ar
    39   18   24 1
    40   19   20 ar
    41   19   42 1
    42   20   21 ar
    43   20   43 1
    44   21   22 ar
    45   21   44 1
    46   22   23 1
@<TRIPOS>MOLECULE
CHEMBL356998
   39    42     0     0     0
SMALL
USER_CHARGES

@<TRIPOS>ATOM
      1 C1         -0.0187    1.5258    0.0104 C.3       1 <0>        -0.1715
      2 C2          0.0021   -0.0041    0.0020 C.3       1 <0>         0.1366
      3 N1          0.6878   -0.4765   -1.2033 N.pl3     1 <0>        -0.5775
      4 C3         -0.0234   -0.7078   -2.3685 C.ar      1 <0>         0.4153
      5 C4          0.3080   -0.0053   -3.5387 C.ar      1 <0>        -0.2020
      6 C5         -0.3679   -0.3149   -4.7242 C.ar      1 <0>        -0.0006
      7 C6         -1.3671   -1.2721   -4.6820 C.ar      1 <0>        -0.1905
      8 C7         -1.6678   -1.8887   -3.4814 C.ar      1 <0>         0.1516
      9 N2         -1.0035   -1.5984   -2.3796 N.ar      1 <0>        -0.4987
     10 C8          1.3106    1.0633   -3.5230 C.2       1 <0>         0.5773
     11 O1          1.0839    2.0455   -4.2028 O.2       1 <0>        -0.5213
     12 N3          2.4418    1.0544   -2.8336 N.am      1 <0>        -0.5385
     13 C9          2.9152    0.0265   -2.0209 C.ar      1 <0>         0.1006
     14 C10         2.0649   -0.6930   -1.1922 C.ar      1 <0>         0.3734
     15 N4          2.5562   -1.6168   -0.3784 N.ar      1 <0>        -0.4600
     16 C11         3.8519   -1.9117   -0.3530 C.ar      1 <0>         0.2182
     17 C12         4.7472   -1.2505   -1.1919 C.ar      1 <0>        -0.1321
     18 C13         4.2748   -0.2761   -2.0330 C.ar      1 <0>        -0.0767
     19 C14         4.3477   -2.9495    0.5733 C.2       1 <0>        -0.0191
     20 C15         3.6036   -3.6809    1.4434 C.2       1 <0>         0.0261
     21 N5          4.4374   -4.5062    2.0926 N.2       1 <0>        -0.4900
     22 C16         5.6506   -4.3097    1.6574 C.2       1 <0>         0.1919
     23 O2          5.6281   -3.3585    0.7142 O.3       1 <0>        -0.1964
     24 C17         3.2827    2.2496   -2.9368 C.3       1 <0>         0.0572
     25 H1          1.0039    1.9031    0.0027 H         1 <0>         0.0541
     26 H2         -0.5459    1.8868   -0.8726 H         1 <0>         0.0546
     27 H3         -0.5289    1.8773    0.9072 H         1 <0>         0.0734
     28 H4          0.5293   -0.3651    0.8851 H         1 <0>         0.0843
     29 H5         -1.0205   -0.3814    0.0098 H         1 <0>         0.0858
     30 H6         -0.1158    0.1808   -5.6500 H         1 <0>         0.1487
     31 H7         -1.9070   -1.5354   -5.5795 H         1 <0>         0.1496
     32 H8         -2.4610   -2.6207   -3.4451 H         1 <0>         0.1688
     33 H9          5.7968   -1.5047   -1.1814 H         1 <0>         0.1526
     34 H10         4.9502    0.2520   -2.6897 H         1 <0>         0.1535
     35 H11         2.5354   -3.6102    1.5863 H         1 <0>         0.1932
     36 H12         6.5315   -4.8329    1.9990 H         1 <0>         0.2569
     37 H13         2.8053    2.9738   -3.5969 H         1 <0>         0.1076
     38 H14         3.4121    2.6894   -1.9479 H         1 <0>         0.0714
     39 H15         4.2564    1.9749   -3.3425 H         1 <0>         0.0721
@<TRIPOS>BOND
     1    1    2 1
     2    1   25 1
     3    1   26 1
     4    1   27 1
     5    2    3 1
     6    2   28 1
     7    2   29 1
     8    3   14 1
     9    3    4 1
    10    4    9 ar
    11    4    5 ar
    12    5    6 ar
    13    5   10 1
    14    6    7 ar
    15    6   30 1
    16    7    8 ar
    17    7   31 1
    18    8    9 ar
    19    8   32 1
    20   10   11 2
    21   10   12 am
    22   12   13 1
    23   12   24 1
    24   13   18 ar
    25   13   14 ar
    26   14   15 ar
    27   15   16 ar
    28   16   17 ar
    29   16   19 1
    30   17   18 ar
    31   17   33 1
    32   18   34 1
    33   19   23 1
    34   19   20 2
    35   20   21 1
    36   20   35 1
    37   21   22 2
    38   22   23 1
    39   22   36 1
    40   24   37 1
    41   24   38 1
    42   24   39 1
@<TRIPOS>MOLECULE
CHEMBL29117
   36    38     0     0     0
SMALL
USER_CHARGES

@<TRIPOS>ATOM
      1 C1          0.4832    1.4160   -0.5431 C.3       1 <0>        -0.1311
      2 C2          0.2614   -0.0758   -0.2856 C.3       1 <0>         0.0830
      3 C3         -1.2023   -0.3477   -0.2309 C.2       1 <0>         0.5031
      4 O1         -1.9245    0.4311   -0.8166 O.2       1 <0>        -0.5113
      5 N1         -1.7858   -1.3415    0.3848 N.am      1 <0>        -0.6465
      6 C4         -1.3786   -2.2915    1.2968 C.ar      1 <0>         0.2118
      7 C5         -2.4098   -3.0613    1.8607 C.ar      1 <0>        -0.1496
      8 C6         -2.1447   -4.0479    2.7792 C.ar      1 <0>        -0.0552
      9 C7         -0.8374   -4.2937    3.1621 C.ar      1 <0>        -0.0515
     10 C8          0.1806   -3.5416    2.6180 C.ar      1 <0>        -0.0905
     11 C9         -0.0790   -2.5375    1.6871 C.ar      1 <0>        -0.1489
     12 C10         1.1147   -1.7899    1.1803 C.3       1 <0>         0.2761
     13 O2          0.9000   -0.4351    0.9181 O.3       1 <0>        -0.3325
     14 C11         1.5725   -2.4350   -0.0610 C.1       1 <0>        -0.2650
     15 C12         1.9377   -2.9496   -1.0511 C.1       1 <0>        -0.0403
     16 C13         2.3955   -3.5947   -2.2924 C.3       1 <0>        -0.0739
     17 C14         3.7382   -4.3273   -2.2542 C.3       1 <0>        -0.1549
     18 C15         3.6155   -2.9930   -2.9929 C.3       1 <0>        -0.1575
     19 C16         2.2330   -1.9082    2.2178 C.3       1 <0>         0.4747
     20 F1          2.6909   -3.2294    2.2613 F         1 <0>        -0.1576
     21 F2          3.2882   -1.0603    1.8647 F         1 <0>        -0.1586
     22 F3          1.7423   -1.5431    3.4760 F         1 <0>        -0.1591
     23 Cl1        -0.4835   -5.5391    4.3186 Cl        1 <0>        -0.0507
     24 H1          1.5519    1.6163   -0.6206 H         1 <0>         0.0806
     25 H2         -0.0083    1.7012   -1.4732 H         1 <0>         0.0959
     26 H3          0.0642    1.9932    0.2811 H         1 <0>         0.0751
     27 H4          0.6982   -0.6470   -1.1047 H         1 <0>         0.1052
     28 H5         -2.7214   -1.4313    0.1449 H         1 <0>         0.4062
     29 H6         -3.4317   -2.8738    1.5659 H         1 <0>         0.1467
     30 H7         -2.9520   -4.6284    3.2006 H         1 <0>         0.1496
     31 H8          1.1999   -3.7342    2.9185 H         1 <0>         0.1630
     32 H9          1.6104   -4.0146   -2.9213 H         1 <0>         0.1368
     33 H10         4.2824   -4.3316   -1.3098 H         1 <0>         0.1023
     34 H11         3.8365   -5.2296   -2.8578 H         1 <0>         0.1112
     35 H12         3.6332   -3.0175   -4.0824 H         1 <0>         0.1111
     36 H13         4.0791   -2.1195   -2.5344 H         1 <0>         0.1021
@<TRIPOS>BOND
     1    1    2 1
     2    1   24 1
     3    1   25 1
     4    1   26 1
     5    2   13 1
     6    2    3 1
     7    2   27 1
     8    3    4 2
     9    3    5 am
    10    5    6 1
    11    5   28 1
    12    6   11 ar
    13    6    7 ar
    14    7    8 ar
    15    7   29 1
    16    8    9 ar
    17    8   30 1
    18    9   10 ar
    19    9   23 1
    20   10   11 ar
    21   10   31 1
    22   11   12 1
    23   12   13 1
    24   12   14 1
    25   12   19 1
    26   14   15 3
    27   15   16 1
    28   16   18 1
    29   16   17 1
    30   16   32 1
    31   17   18 1
    32   17   33 1
    33   17   34 1
    34   18   35 1
    35   18   36 1
    36   19   20 1
    37   19   21 1
    38   19   22 1
@<TRIPOS>MOLECULE
CHEMBL29117__1
   36    38     0     0     0
SMALL
USER_CHARGES

@<TRIPOS>ATOM
      1 C1          0.0026    1.5624    0.0400 C.3       1 <0>        -0.1829
      2 C2          0.0410    0.0341    0.0057 C.3       1 <0>         0.1187
      3 C3         -1.3334   -0.4850   -0.2294 C.2       1 <0>         0.4961
      4 O1         -1.7384   -0.4528   -1.3740 O.2       1 <0>        -0.5191
      5 N1         -2.1475   -0.9659    0.6663 N.am      1 <0>        -0.6430
      6 C4         -2.1007   -1.1486    2.0308 C.ar      1 <0>         0.2091
      7 C5         -3.3189   -1.5848    2.5831 C.ar      1 <0>        -0.1519
      8 C6         -3.4621   -1.7987    3.9301 C.ar      1 <0>        -0.0533
      9 C7         -2.3803   -1.5812    4.7651 C.ar      1 <0>        -0.0558
     10 C8         -1.1817   -1.1582    4.2329 C.ar      1 <0>        -0.0765
     11 C9         -1.0172   -0.9554    2.8593 C.ar      1 <0>        -0.1566
     12 C10         0.3629   -0.5642    2.4307 C.3       1 <0>         0.3193
     13 O2          0.6795   -0.5072    1.0999 O.3       1 <0>        -0.3666
     14 C11         0.6875    0.7240    3.0794 C.1       1 <0>        -0.2549
     15 C12         0.9452    1.7470    3.5946 C.1       1 <0>        -0.0530
     16 C13         1.2684    3.0296    4.2405 C.3       1 <0>        -0.0677
     17 C14         1.3845    4.2632    3.3428 C.3       1 <0>        -0.1574
     18 C15         2.6416    3.6395    3.9523 C.3       1 <0>        -0.1591
     19 C16         1.3238   -1.6033    3.0574 C.3       1 <0>         0.4672
     20 F1          0.9056   -2.8929    2.7122 F         1 <0>        -0.1650
     21 F2          2.6201   -1.3892    2.5767 F         1 <0>        -0.1596
     22 F3          1.3144   -1.4671    4.4497 F         1 <0>        -0.1617
     23 Cl1        -2.5343   -1.8414    6.4748 Cl        1 <0>        -0.0504
     24 H1          1.0208    1.9512    0.0581 H         1 <0>         0.0877
     25 H2         -0.5121    1.9330   -0.8465 H         1 <0>         0.0883
     26 H3         -0.5282    1.8926    0.9330 H         1 <0>         0.0634
     27 H4          0.6320   -0.2411   -0.8952 H         1 <0>         0.1630
     28 H5         -2.9899   -1.2618    0.2837 H         1 <0>         0.4068
     29 H6         -4.1622   -1.7584    1.9285 H         1 <0>         0.1474
     30 H7         -4.4015   -2.1446    4.3331 H         1 <0>         0.1507
     31 H8         -0.3738   -0.9669    4.9238 H         1 <0>         0.1620
     32 H9          0.8546    3.1706    5.2390 H         1 <0>         0.1361
     33 H10         1.2216    4.1249    2.2740 H         1 <0>         0.1009
     34 H11         1.0469    5.2160    3.7507 H         1 <0>         0.1100
     35 H12         3.1312    4.1820    4.7611 H         1 <0>         0.1094
     36 H13         3.3058    3.0910    3.2844 H         1 <0>         0.0984
@<TRIPOS>BOND
     1    1    2 1
     2    1   24 1
     3    1   25 1
     4    1   26 1
     5    2   13 1
     6    2    3 1
     7    2   27 1
     8    3    4 2
     9    3    5 am
    10    5    6 1
    11    5   28 1
    12    6   11 ar
    13    6    7 ar
    14    7    8 ar
    15    7   29 1
    16    8    9 ar
    17    8   30 1
    18    9   10 ar
    19    9   23 1
    20   10   11 ar
    21   10   31 1
    22   11   12 1
    23   12   13 1
    24   12   14 1
    25   12   19 1
    26   14   15 3
    27   15   16 1
    28   16   18 1
    29   16   17 1
    30   16   32 1
    31   17   18 1
    32   17   33 1
    33   17   34 1
    34   18   35 1
    35   18   36 1
    36   19   20 1
    37   19   21 1
    38   19   22 1
@<TRIPOS>MOLECULE
CHEMBL29117__2
   36    38     0     0     0
SMALL
USER_CHARGES

@<TRIPOS>ATOM
      1 C1         -0.0187    1.5245    0.0104 C.3       1 <0>        -0.1865
      2 C2          0.0021   -0.0041    0.0020 C.3       1 <0>         0.1151
      3 C3          0.5500   -0.4708   -1.3027 C.2       1 <0>         0.4961
      4 O1         -0.2483   -0.7163   -2.1811 O.2       1 <0>        -0.5138
      5 N1          1.8135   -0.6381   -1.5806 N.am      1 <0>        -0.6449
      6 C4          2.9736   -0.5455   -0.8413 C.ar      1 <0>         0.2098
      7 C5          4.1419   -0.5670   -1.6260 C.ar      1 <0>        -0.1522
      8 C6          5.3869   -0.4697   -1.0582 C.ar      1 <0>        -0.0526
      9 C7          5.4980   -0.3534    0.3150 C.ar      1 <0>        -0.0571
     10 C8          4.3597   -0.3511    1.0903 C.ar      1 <0>        -0.0686
     11 C9          3.0813   -0.4405    0.5266 C.ar      1 <0>        -0.1610
     12 C10         1.9592   -0.4347    1.5145 C.3       1 <0>         0.3164
     13 O2          0.6570   -0.5308    1.0968 O.3       1 <0>        -0.3608
     14 C11         2.1038    0.7717    2.3580 C.1       1 <0>        -0.2513
     15 C12         2.2186    1.7293    3.0274 C.1       1 <0>        -0.0535
     16 C13         2.3625    2.9299    3.8668 C.3       1 <0>        -0.0667
     17 C14         2.7386    2.7241    5.3356 C.3       1 <0>        -0.1584
     18 C15         1.3187    3.1551    4.9626 C.3       1 <0>        -0.1586
     19 C16         2.2050   -1.6320    2.4604 C.3       1 <0>         0.4642
     20 F1          3.4383   -1.4741    3.1018 F         1 <0>        -0.1623
     21 F2          1.1856   -1.6876    3.4169 F         1 <0>        -0.1604
     22 F3          2.2136   -2.8182    1.7187 F         1 <0>        -0.1663
     23 Cl1         7.0587   -0.2107    1.0599 Cl        1 <0>        -0.0493
     24 H1          1.0039    1.9017    0.0027 H         1 <0>         0.0634
     25 H2         -0.5458    1.8855   -0.8726 H         1 <0>         0.0867
     26 H3         -0.5288    1.8760    0.9072 H         1 <0>         0.0881
     27 H4         -1.0523   -0.3367    0.0434 H         1 <0>         0.1635
     28 H5          1.9720   -0.8767   -2.5063 H         1 <0>         0.4077
     29 H6          4.0528   -0.6711   -2.6960 H         1 <0>         0.1474
     30 H7          6.2705   -0.4826   -1.6809 H         1 <0>         0.1505
     31 H8          4.4826   -0.2869    2.1628 H         1 <0>         0.1613
     32 H9          2.7617    3.8104    3.3634 H         1 <0>         0.1364
     33 H10         2.8794    1.6997    5.6802 H         1 <0>         0.0983
     34 H11         3.3854    3.4693    5.7986 H         1 <0>         0.1095
     35 H12         1.0314    4.1838    5.1802 H         1 <0>         0.1097
     36 H13         0.5254    2.4142    5.0619 H         1 <0>         0.1000
@<TRIPOS>BOND
     1    1    2 1
     2    1   24 1
     3    1   25 1
     4    1   26 1
     5    2   13 1
     6    2    3 1
     7    2   27 1
     8    3    4 2
     9    3    5 am
    10    5    6 1
    11    5   28 1
    12    6   11 ar
    13    6    7 ar
    14    7    8 ar
    15    7   29 1
    16    8    9 ar
    17    8   30 1
    18    9   10 ar
    19    9   23 1
    20   10   11 ar
    21   10   31 1
    22   11   12 1
    23   12   13 1
    24   12   14 1
    25   12   19 1
    26   14   15 3
    27   15   16 1
    28   16   18 1
    29   16   17 1
    30   16   32 1
    31   17   18 1
    32   17   33 1
    33   17   34 1
    34   18   35 1
    35   18   36 1
    36   19   20 1
    37   19   21 1
    38   19   22 1
@<TRIPOS>MOLECULE
CHEMBL29117__3
   36    38     0     0     0
SMALL
USER_CHARGES

@<TRIPOS>ATOM
      1 C1         -0.2125    1.5089    0.0580 C.3       1 <0>        -0.1316
      2 C2         -0.0987   -0.0165    0.0264 C.3       1 <0>         0.0835
      3 C3          0.5905   -0.4275   -1.2289 C.2       1 <0>         0.5032
      4 O1          0.5269    0.3415   -2.1647 O.2       1 <0>        -0.5112
      5 N1          1.2571   -1.5350   -1.4205 N.am      1 <0>        -0.6460
      6 C4          1.7189   -2.5454   -0.6052 C.ar      1 <0>         0.2121
      7 C5          2.5635   -3.4786   -1.2295 C.ar      1 <0>        -0.1499
      8 C6          3.0951   -4.5382   -0.5354 C.ar      1 <0>        -0.0550
      9 C7          2.7976   -4.6958    0.8073 C.ar      1 <0>        -0.0516
     10 C8          1.9698   -3.7865    1.4286 C.ar      1 <0>        -0.0902
     11 C9          1.4243   -2.7099    0.7321 C.ar      1 <0>        -0.1490
     12 C10         0.5380   -1.7985    1.5231 C.3       1 <0>         0.2763
     13 O2          0.6054   -0.4495    1.1678 O.3       1 <0>        -0.3326
     14 C11        -0.8535   -2.2509    1.3623 C.1       1 <0>        -0.2648
     15 C12        -1.9633   -2.6117    1.2341 C.1       1 <0>        -0.0402
     16 C13        -3.3548   -3.0641    1.0733 C.3       1 <0>        -0.0723
     17 C14        -4.3037   -2.1625    0.2810 C.3       1 <0>        -0.1585
     18 C15        -4.4435   -2.2725    1.8007 C.3       1 <0>        -0.1555
     19 C16         0.9118   -1.9265    3.0012 C.3       1 <0>         0.4746
     20 F1          2.2923   -1.7550    3.1496 F         1 <0>        -0.1594
     21 F2          0.2382   -0.9472    3.7391 F         1 <0>        -0.1585
     22 F3          0.5467   -3.1944    3.4664 F         1 <0>        -0.1573
     23 Cl1         3.4615   -6.0282    1.7005 Cl        1 <0>        -0.0506
     24 H1          0.7853    1.9477    0.0618 H         1 <0>         0.0756
     25 H2         -0.7564    1.8510   -0.8225 H         1 <0>         0.0958
     26 H3         -0.7474    1.8149    0.9571 H         1 <0>         0.0806
     27 H4         -1.0994   -0.4485    0.0401 H         1 <0>         0.1034
     28 H5          1.4779   -1.6796   -2.3538 H         1 <0>         0.4060
     29 H6          2.7993   -3.3607   -2.2768 H         1 <0>         0.1466
     30 H7          3.7414   -5.2448   -1.0348 H         1 <0>         0.1497
     31 H8          1.7386   -3.9110    2.4762 H         1 <0>         0.1630
     32 H9         -3.4914   -4.1417    0.9830 H         1 <0>         0.1387
     33 H10        -3.8976   -1.2343   -0.1211 H         1 <0>         0.0993
     34 H11        -5.0647   -2.6469   -0.3308 H         1 <0>         0.1115
     35 H12        -5.2965   -2.8294    2.1886 H         1 <0>         0.1117
     36 H13        -4.1294   -1.4168    2.3982 H         1 <0>         0.1023
@<TRIPOS>BOND
     1    1    2 1
     2    1   24 1
     3    1   25 1
     4    1   26 1
     5    2   13 1
     6    2    3 1
     7    2   27 1
     8    3    4 2
     9    3    5 am
    10    5    6 1
    11    5   28 1
    12    6   11 ar
    13    6    7 ar
    14    7    8 ar
    15    7   29 1
    16    8    9 ar
    17    8   30 1
    18    9   10 ar
    19    9   23 1
    20   10   11 ar
    21   10   31 1
    22   11   12 1
    23   12   13 1
    24   12   14 1
    25   12   19 1
    26   14   15 3
    27   15   16 1
    28   16   18 1
    29   16   17 1
    30   16   32 1
    31   17   18 1
    32   17   33 1
    33   17   34 1
    34   18   35 1
    35   18   36 1
    36   19   20 1
    37   19   21 1
    38   19   22 1
@<TRIPOS>MOLECULE
CHEMBL352398
   57    60     0     0     0
SMALL
USER_CHARGES

@<TRIPOS>ATOM
      1 C1         -0.0184    1.5028    0.0103 C.3       1 <0>        -0.0833
      2 C2          0.0021   -0.0041    0.0020 C.2       1 <0>        -0.2695
      3 C3         -1.1526   -0.7039    0.0037 C.2       1 <0>         0.1738
      4 N1         -1.1160   -2.0718   -0.0039 N.am      1 <0>        -0.5391
      5 C4          0.0598   -2.7257   -0.0130 C.2       1 <0>         0.7024
      6 O1          0.0693   -3.9416   -0.0196 O.2       1 <0>        -0.5391
      7 N2          1.2256   -2.0531   -0.0153 N.am      1 <0>        -0.6584
      8 H1          2.0644   -2.5402   -0.0225 H         1 <0>         0.4297
      9 C5          1.2322   -0.7047   -0.0135 C.2       1 <0>         0.5559
     10 O2          2.2865   -0.0953   -0.0208 O.2       1 <0>        -0.5168
     11 C6         -2.3687   -2.8312   -0.0016 C.3       1 <0>         0.3144
     12 C7         -2.4790   -3.6599   -1.2610 C.2       1 <0>        -0.1917
     13 C8         -3.2954   -3.0495   -2.0878 C.2       1 <0>        -0.1456
     14 C9         -3.7780   -1.7775   -1.4289 C.3       1 <0>         0.0760
     15 O3         -3.4947   -1.9333   -0.0253 O.3       1 <0>        -0.3223
     16 C10        -5.2825   -1.6069   -1.6484 C.3       1 <0>         0.1434
     17 O4         -5.7008   -0.3461   -1.1216 O.3       1 <0>        -0.7563
     18 P1         -7.2260    0.1661   -1.1797 P.3       1 <0>         2.2295
     19 O5         -7.7241    0.1356   -2.6419 O.2       1 <0>        -1.1016
     20 O6         -8.1126   -0.7569   -0.3143 O.3       1 <0>        -1.0962
     21 O7         -7.3083    1.6720   -0.6161 O.3       1 <0>        -0.7530
     22 C11        -8.5101    2.4449   -0.6335 C.3       1 <0>         0.1248
     23 C12        -8.2391    3.8228   -0.0261 C.3       1 <0>         0.0948
     24 C13        -9.5157    4.6307    0.0255 C.2       1 <0>        -0.1523
     25 C14        -9.5031    5.4884   -0.9679 C.2       1 <0>        -0.1897
     26 C15        -8.2173    5.3035   -1.7409 C.3       1 <0>         0.3224
     27 O8         -7.3389    4.5688   -0.8673 O.3       1 <0>        -0.3424
     28 N3         -7.6320    6.6061   -2.0680 N.am      1 <0>        -0.5289
     29 C16        -6.3789    6.9188   -1.6159 C.2       1 <0>         0.1870
     30 C17        -5.8395    8.1193   -1.9174 C.2       1 <0>        -0.2765
     31 C18        -6.5864    9.0333   -2.6990 C.2       1 <0>         0.5559
     32 O9         -6.1208   10.1219   -2.9841 O.2       1 <0>        -0.5176
     33 N4         -7.8179    8.6871   -3.1253 N.am      1 <0>        -0.6576
     34 H2         -8.3358    9.3080   -3.6613 H         1 <0>         0.4306
     35 C19        -8.3293    7.4814   -2.8147 C.2       1 <0>         0.7018
     36 O10        -9.4390    7.1810   -3.2105 O.2       1 <0>        -0.5353
     37 C20        -4.4610    8.4816   -1.4279 C.3       1 <0>        -0.0763
     38 H3          1.0042    1.8801    0.0026 H         1 <0>         0.0784
     39 H4         -0.5455    1.8639   -0.8728 H         1 <0>         0.0708
     40 H5         -0.5286    1.8543    0.9071 H         1 <0>         0.0708
     41 H6         -2.1006   -0.1866    0.0113 H         1 <0>         0.1855
     42 H7         -2.4176   -3.4730    0.8781 H         1 <0>         0.1371
     43 H8         -1.9726   -4.5952   -1.4484 H         1 <0>         0.1621
     44 H9         -3.5745   -3.3967   -3.0717 H         1 <0>         0.1620
     45 H10        -3.2389   -0.9186   -1.8286 H         1 <0>         0.0994
     46 H11        -5.5007   -1.6451   -2.7156 H         1 <0>         0.0761
     47 H12        -5.8172   -2.4088   -1.1393 H         1 <0>         0.0676
     48 H13        -8.8519    2.5620   -1.6618 H         1 <0>         0.0607
     49 H14        -9.2780    1.9358   -0.0511 H         1 <0>         0.0727
     50 H15        -7.8188    3.7167    0.9740 H         1 <0>         0.1224
     51 H16       -10.3042    4.5205    0.7553 H         1 <0>         0.1620
     52 H17       -10.2793    6.2043   -1.1946 H         1 <0>         0.1600
     53 H18        -8.4043    4.7348   -2.6518 H         1 <0>         0.1209
     54 H19        -5.8241    6.2088   -1.0204 H         1 <0>         0.1857
     55 H20        -3.7205    8.1709   -2.1649 H         1 <0>         0.0687
     56 H21        -4.3988    9.5601   -1.2828 H         1 <0>         0.0738
     57 H22        -4.2667    7.9760   -0.4821 H         1 <0>         0.0700
@<TRIPOS>BOND
     1    1    2 1
     2    1   38 1
     3    1   39 1
     4    1   40 1
     5    2    9 1
     6    2    3 2
     7    3    4 1
     8    3   41 1
     9    4    5 am
    10    4   11 1
    11    5    6 2
    12    5    7 am
    13    7    8 1
    14    7    9 am
    15    9   10 2
    16   11   15 1
    17   11   12 1
    18   11   42 1
    19   12   13 2
    20   12   43 1
    21   13   14 1
    22   13   44 1
    23   14   15 1
    24   14   16 1
    25   14   45 1
    26   16   17 1
    27   16   46 1
    28   16   47 1
    29   17   18 1
    30   18   19 2
    31   18   20 1
    32   18   21 1
    33   21   22 1
    34   22   23 1
    35   22   48 1
    36   22   49 1
    37   23   27 1
    38   23   24 1
    39   23   50 1
    40   24   25 2
    41   24   51 1
    42   25   26 1
    43   25   52 1
    44   26   27 1
    45   26   28 1
    46   26   53 1
    47   28   35 am
    48   28   29 1
    49   29   30 2
    50   29   54 1
    51   30   31 1
    52   30   37 1
    53   31   32 2
    54   31   33 am
    55   33   34 1
    56   33   35 am
    57   35   36 2
    58   37   55 1
    59   37   56 1
    60   37   57 1
@<TRIPOS>MOLECULE
CHEMBL352398__1
   57    60     0     0     0
SMALL
USER_CHARGES

@<TRIPOS>ATOM
      1 C1          0.0652    1.5310    0.3593 C.3       1 <0>        -0.0835
      2 C2          0.0931    0.0242    0.3619 C.2       1 <0>        -0.2696
      3 C3         -1.0574   -0.6814    0.3210 C.2       1 <0>         0.1743
      4 N1         -1.0139   -2.0490    0.3241 N.am      1 <0>        -0.5389
      5 C4          0.1643   -2.6972    0.3676 C.2       1 <0>         0.7025
      6 O1          0.1799   -3.9129    0.3695 O.2       1 <0>        -0.5396
      7 N2          1.3260   -2.0187    0.4085 N.am      1 <0>        -0.6584
      8 H1          2.1667   -2.5016    0.4389 H         1 <0>         0.4294
      9 C5          1.3261   -0.6703    0.4016 C.2       1 <0>         0.5563
     10 O2          2.3769   -0.0556    0.4334 O.2       1 <0>        -0.5175
     11 C6         -2.2621   -2.8148    0.2801 C.3       1 <0>         0.3142
     12 C7         -2.3167   -3.6521   -0.9772 C.2       1 <0>        -0.1928
     13 C8         -3.1014   -3.0512   -1.8409 C.2       1 <0>        -0.1446
     14 C9         -3.6166   -1.7775   -1.2108 C.3       1 <0>         0.0760
     15 O3         -3.3904   -1.9227    0.2042 O.3       1 <0>        -0.3223
     16 C10        -5.1117   -1.6158   -1.4929 C.3       1 <0>         0.1448
     17 O4         -5.5572   -0.3537   -0.9921 O.3       1 <0>        -0.7553
     18 P1         -7.0812    0.1504   -1.1162 P.3       1 <0>         2.2320
     19 O5         -7.5187    0.1079   -2.5973 O.2       1 <0>        -1.0964
     20 O6         -7.9981   -0.7714   -0.2817 O.3       1 <0>        -1.1035
     21 O7         -7.1937    1.6594   -0.5665 O.3       1 <0>        -0.7413
     22 C11        -8.3974    2.4262   -0.6383 C.3       1 <0>         0.1353
     23 C12        -8.1581    3.8094   -0.0296 C.3       1 <0>         0.0736
     24 C13        -9.4330    4.6210   -0.0608 C.2       1 <0>        -0.1291
     25 C14        -9.3594    5.4688   -1.0601 C.2       1 <0>        -0.2162
     26 C15        -8.0311    5.2729   -1.7545 C.3       1 <0>         0.3139
     27 O8         -7.2077    4.5446   -0.8238 O.3       1 <0>        -0.2976
     28 N3         -8.2126    4.4970   -2.9839 N.am      1 <0>        -0.5513
     29 C16        -9.3269    4.6962   -3.7527 C.2       1 <0>         0.1647
     30 C17        -9.4941    3.9811   -4.8857 C.2       1 <0>        -0.2649
     31 C18        -8.5074    3.0356   -5.2555 C.2       1 <0>         0.5578
     32 O9         -8.6359    2.3791   -6.2731 O.2       1 <0>        -0.5219
     33 N4         -7.4236    2.8690   -4.4706 N.am      1 <0>        -0.6442
     34 H2         -6.7432    2.2232   -4.7173 H         1 <0>         0.4337
     35 C19        -7.2795    3.5993   -3.3492 C.2       1 <0>         0.6894
     36 O10        -6.2944    3.4421   -2.6541 O.2       1 <0>        -0.4930
     37 C20       -10.7150    4.1862   -5.7450 C.3       1 <0>        -0.0750
     38 H3          1.0854    1.9133    0.3910 H         1 <0>         0.0782
     39 H4         -0.4271    1.8837   -0.5470 H         1 <0>         0.0713
     40 H5         -0.4831    1.8857    1.2320 H         1 <0>         0.0707
     41 H6         -2.0073   -0.1688    0.2863 H         1 <0>         0.1857
     42 H7         -2.3440   -3.4511    1.1613 H         1 <0>         0.1368
     43 H8         -1.7985   -4.5861   -1.1375 H         1 <0>         0.1621
     44 H9         -3.3383   -3.4062   -2.8330 H         1 <0>         0.1618
     45 H10        -3.0657   -0.9185   -1.5938 H         1 <0>         0.0996
     46 H11        -5.2857   -1.6620   -2.5680 H         1 <0>         0.0750
     47 H12        -5.6630   -2.4171   -1.0009 H         1 <0>         0.0649
     48 H13        -8.6973    2.5349   -1.6806 H         1 <0>         0.0469
     49 H14        -9.1862    1.9170   -0.0845 H         1 <0>         0.0601
     50 H15        -7.7975    3.7121    0.9944 H         1 <0>         0.1214
     51 H16       -10.2632    4.5202    0.6225 H         1 <0>         0.1600
     52 H17       -10.1185    6.1848   -1.3385 H         1 <0>         0.1601
     53 H18        -7.5790    6.2384   -1.9814 H         1 <0>         0.1263
     54 H19       -10.0693    5.4217   -3.4545 H         1 <0>         0.1714
     55 H20       -10.5132    4.9619   -6.4837 H         1 <0>         0.0652
     56 H21       -10.9615    3.2547   -6.2544 H         1 <0>         0.0759
     57 H22       -11.5534    4.4906   -5.1184 H         1 <0>         0.0651
@<TRIPOS>BOND
     1    1    2 1
     2    1   38 1
     3    1   39 1
     4    1   40 1
     5    2    9 1
     6    2    3 2
     7    3    4 1
     8    3   41 1
     9    4    5 am
    10    4   11 1
    11    5    6 2
    12    5    7 am
    13    7    8 1
    14    7    9 am
    15    9   10 2
    16   11   15 1
    17   11   12 1
    18   11   42 1
    19   12   13 2
    20   12   43 1
    21   13   14 1
    22   13   44 1
    23   14   15 1
    24   14   16 1
    25   14   45 1
    26   16   17 1
    27   16   46 1
    28   16   47 1
    29   17   18 1
    30   18   19 2
    31   18   20 1
    32   18   21 1
    33   21   22 1
    34   22   23 1
    35   22   48 1
    36   22   49 1
    37   23   27 1
    38   23   24 1
    39   23   50 1
    40   24   25 2
    41   24   51 1
    42   25   26 1
    43   25   52 1
    44   26   27 1
    45   26   28 1
    46   26   53 1
    47   28   35 am
    48   28   29 1
    49   29   30 2
    50   29   54 1
    51   30   31 1
    52   30   37 1
    53   31   32 2
    54   31   33 am
    55   33   34 1
    56   33   35 am
    57   35   36 2
    58   37   55 1
    59   37   56 1
    60   37   57 1
@<TRIPOS>MOLECULE
CHEMBL352398__2
   57    60     0     0     0
SMALL
USER_CHARGES

@<TRIPOS>ATOM
      1 C1         -0.0184    1.5028    0.0103 C.3       1 <0>        -0.0833
      2 C2          0.0021   -0.0041    0.0020 C.2       1 <0>        -0.2699
      3 C3         -1.1526   -0.7039    0.0037 C.2       1 <0>         0.1743
      4 N1         -1.1160   -2.0718   -0.0039 N.am      1 <0>        -0.5390
      5 C4          0.0598   -2.7257   -0.0130 C.2       1 <0>         0.7024
      6 O1          0.0693   -3.9416   -0.0196 O.2       1 <0>        -0.5389
      7 N2          1.2256   -2.0531   -0.0153 N.am      1 <0>        -0.6583
      8 H1          2.0644   -2.5402   -0.0225 H         1 <0>         0.4297
      9 C5          1.2322   -0.7047   -0.0135 C.2       1 <0>         0.5559
     10 O2          2.2865   -0.0953   -0.0208 O.2       1 <0>        -0.5170
     11 C6         -2.3687   -2.8312   -0.0016 C.3       1 <0>         0.3143
     12 C7         -2.4790   -3.6599   -1.2610 C.2       1 <0>        -0.1914
     13 C8         -3.2954   -3.0495   -2.0878 C.2       1 <0>        -0.1459
     14 C9         -3.7780   -1.7775   -1.4289 C.3       1 <0>         0.0759
     15 O3         -3.4947   -1.9333   -0.0253 O.3       1 <0>        -0.3219
     16 C10        -5.2825   -1.6069   -1.6484 C.3       1 <0>         0.1435
     17 O4         -5.7008   -0.3461   -1.1216 O.3       1 <0>        -0.7567
     18 P1         -7.2260    0.1661   -1.1797 P.3       1 <0>         2.2299
     19 O5         -7.7241    0.1356   -2.6419 O.2       1 <0>        -1.1029
     20 O6         -8.1126   -0.7569   -0.3143 O.3       1 <0>        -1.0948
     21 O7         -7.3083    1.6720   -0.6161 O.3       1 <0>        -0.7553
     22 C11        -8.5101    2.4449   -0.6335 C.3       1 <0>         0.1392
     23 C12        -8.2391    3.8228   -0.0261 C.3       1 <0>         0.0945
     24 C13        -9.4831    4.6786   -0.0977 C.2       1 <0>        -0.1506
     25 C14        -9.6251    5.2993    1.0500 C.2       1 <0>        -0.1948
     26 C15        -8.4842    4.8943    1.9552 C.3       1 <0>         0.3255
     27 O8         -7.9322    3.6968    1.3755 O.3       1 <0>        -0.3413
     28 N3         -8.9825    4.6196    3.3051 N.am      1 <0>        -0.5301
     29 C16        -8.8034    3.3792    3.8543 C.2       1 <0>         0.1841
     30 C17        -9.2627    3.1261    5.0985 C.2       1 <0>        -0.2716
     31 C18        -9.9233    4.1554    5.8116 C.2       1 <0>         0.5557
     32 O9        -10.3459    3.9511    6.9353 O.2       1 <0>        -0.5162
     33 N4        -10.0798    5.3643    5.2351 N.am      1 <0>        -0.6580
     34 H2        -10.5313    6.0745    5.7173 H         1 <0>         0.4299
     35 C19        -9.6072    5.5909    3.9954 C.2       1 <0>         0.7032
     36 O10        -9.7509    6.6876    3.4904 O.2       1 <0>        -0.5416
     37 C20        -9.0752    1.7659    5.7197 C.3       1 <0>        -0.0798
     38 H3          1.0042    1.8801    0.0026 H         1 <0>         0.0783
     39 H4         -0.5455    1.8639   -0.8728 H         1 <0>         0.0704
     40 H5         -0.5286    1.8543    0.9071 H         1 <0>         0.0707
     41 H6         -2.1006   -0.1866    0.0113 H         1 <0>         0.1856
     42 H7         -2.4176   -3.4730    0.8781 H         1 <0>         0.1372
     43 H8         -1.9726   -4.5952   -1.4484 H         1 <0>         0.1621
     44 H9         -3.5745   -3.3967   -3.0717 H         1 <0>         0.1620
     45 H10        -3.2389   -0.9186   -1.8286 H         1 <0>         0.0990
     46 H11        -5.5007   -1.6451   -2.7156 H         1 <0>         0.0760
     47 H12        -5.8172   -2.4088   -1.1393 H         1 <0>         0.0679
     48 H13        -8.8519    2.5620   -1.6618 H         1 <0>         0.0760
     49 H14        -9.2780    1.9358   -0.0511 H         1 <0>         0.0640
     50 H15        -7.4158    4.3089   -0.5494 H         1 <0>         0.1069
     51 H16       -10.1427    4.7648   -0.9486 H         1 <0>         0.1618
     52 H17       -10.4216    5.9827    1.3045 H         1 <0>         0.1591
     53 H18        -7.7297    5.6805    1.9845 H         1 <0>         0.1172
     54 H19        -8.2973    2.6061    3.2951 H         1 <0>         0.1888
     55 H20        -8.1307    1.7418    6.2633 H         1 <0>         0.0684
     56 H21        -9.8959    1.5646    6.4082 H         1 <0>         0.0744
     57 H22        -9.0633    1.0075    4.9369 H         1 <0>         0.0752
@<TRIPOS>BOND
     1    1    2 1
     2    1   38 1
     3    1   39 1
     4    1   40 1
     5    2    9 1
     6    2    3 2
     7    3    4 1
     8    3   41 1
     9    4    5 am
    10    4   11 1
    11    5    6 2
    12    5    7 am
    13    7    8 1
    14    7    9 am
    15    9   10 2
    16   11   15 1
    17   11   12 1
    18   11   42 1
    19   12   13 2
    20   12   43 1
    21   13   14 1
    22   13   44 1
    23   14   15 1
    24   14   16 1
    25   14   45 1
    26   16   17 1
    27   16   46 1
    28   16   47 1
    29   17   18 1
    30   18   19 2
    31   18   20 1
    32   18   21 1
    33   21   22 1
    34   22   23 1
    35   22   48 1
    36   22   49 1
    37   23   27 1
    38   23   24 1
    39   23   50 1
    40   24   25 2
    41   24   51 1
    42   25   26 1
    43   25   52 1
    44   26   27 1
    45   26   28 1
    46   26   53 1
    47   28   35 am
    48   28   29 1
    49   29   30 2
    50   29   54 1
    51   30   31 1
    52   30   37 1
    53   31   32 2
    54   31   33 am
    55   33   34 1
    56   33   35 am
    57   35   36 2
    58   37   55 1
    59   37   56 1
    60   37   57 1
@<TRIPOS>MOLECULE
CHEMBL352398__3
   57    60     0     0     0
SMALL
USER_CHARGES

@<TRIPOS>ATOM
      1 C1          0.0096    1.4688    0.2012 C.3       1 <0>        -0.0833
      2 C2          0.0291   -0.0380    0.2168 C.2       1 <0>        -0.2694
      3 C3         -1.1260   -0.7372    0.2106 C.2       1 <0>         0.1738
      4 N1         -1.0902   -2.1050    0.2249 N.am      1 <0>        -0.5391
      5 C4          0.0850   -2.7596    0.2452 C.2       1 <0>         0.7024
      6 O1          0.0938   -3.9754    0.2577 O.2       1 <0>        -0.5390
      7 N2          1.2512   -2.0876    0.2513 N.am      1 <0>        -0.6584
      8 H1          2.0897   -2.5752    0.2653 H         1 <0>         0.4297
      9 C5          1.2588   -0.7394    0.2322 C.2       1 <0>         0.5558
     10 O2          2.3135   -0.1306    0.2325 O.2       1 <0>        -0.5167
     11 C6         -2.3434   -2.8637    0.2187 C.3       1 <0>         0.3142
     12 C7         -2.4338   -3.7119   -1.0293 C.2       1 <0>        -0.1912
     13 C8         -3.2362   -3.1141   -1.8787 C.2       1 <0>        -0.1460
     14 C9         -3.7286   -1.8318   -1.2476 C.3       1 <0>         0.0760
     15 O3         -3.4682   -1.9657    0.1627 O.3       1 <0>        -0.3219
     16 C10        -5.2292   -1.6638   -1.4941 C.3       1 <0>         0.1435
     17 O4         -5.6550   -0.3948   -0.9939 O.3       1 <0>        -0.7566
     18 P1         -7.1787    0.1172   -1.0848 P.3       1 <0>         2.2305
     19 O5         -7.6531    0.0641   -2.5542 O.2       1 <0>        -1.1021
     20 O6         -8.0800   -0.7918   -0.2196 O.3       1 <0>        -1.0949
     21 O7         -7.2691    1.6317   -0.5461 O.3       1 <0>        -0.7562
     22 C11        -8.4699    2.4048   -0.5951 C.3       1 <0>         0.1433
     23 C12        -8.2078    3.7919   -0.0049 C.3       1 <0>         0.0724
     24 C13        -9.4498    4.6470   -0.1101 C.2       1 <0>        -0.1435
     25 C14        -9.6099    5.2857    1.0254 C.2       1 <0>        -0.1949
     26 C15        -8.4842    4.8943    1.9552 C.3       1 <0>         0.3126
     27 O8         -7.9237    3.6876    1.4033 O.3       1 <0>        -0.3195
     28 N3         -7.4702    5.9510    1.9946 N.am      1 <0>        -0.5372
     29 C16        -6.2971    5.7906    1.3087 C.2       1 <0>         0.1718
     30 C17        -5.3627    6.7645    1.3451 C.2       1 <0>        -0.2682
     31 C18        -5.6185    7.9369    2.0964 C.2       1 <0>         0.5560
     32 O9         -4.7911    8.8291    2.1440 O.2       1 <0>        -0.5158
     33 N4         -6.7871    8.0565    2.7585 N.am      1 <0>        -0.6585
     34 H2         -6.9697    8.8568    3.2754 H         1 <0>         0.4299
     35 C19        -7.7035    7.0724    2.7005 C.2       1 <0>         0.7026
     36 O10        -8.7549    7.1965    3.2983 O.2       1 <0>        -0.5397
     37 C20        -4.0645    6.6056    0.5965 C.3       1 <0>        -0.0798
     38 H3          1.0325    1.8454    0.2042 H         1 <0>         0.0785
     39 H4         -0.5029    1.8163   -0.6958 H         1 <0>         0.0707
     40 H5         -0.5148    1.8345    1.0840 H         1 <0>         0.0709
     41 H6         -2.0736   -0.2194    0.1947 H         1 <0>         0.1855
     42 H7         -2.4070   -3.4917    1.1074 H         1 <0>         0.1370
     43 H8         -1.9251   -4.6502   -1.1938 H         1 <0>         0.1621
     44 H9         -3.4996   -3.4765   -2.8614 H         1 <0>         0.1620
     45 H10        -3.1824   -0.9795   -1.6518 H         1 <0>         0.0992
     46 H11        -5.4300   -1.7186   -2.5641 H         1 <0>         0.0762
     47 H12        -5.7727   -2.4574   -0.9814 H         1 <0>         0.0677
     48 H13        -8.7948    2.5060   -1.6306 H         1 <0>         0.0766
     49 H14        -9.2475    1.9052   -0.0174 H         1 <0>         0.0677
     50 H15        -7.3757    4.2694   -0.5223 H         1 <0>         0.0993
     51 H16       -10.0957    4.7199   -0.9726 H         1 <0>         0.1628
     52 H17       -10.4096    5.9739    1.2560 H         1 <0>         0.1600
     53 H18        -8.8714    4.7058    2.9565 H         1 <0>         0.1413
     54 H19        -6.1194    4.8891    0.7412 H         1 <0>         0.1826
     55 H20        -4.1752    7.0047   -0.4117 H         1 <0>         0.0692
     56 H21        -3.2758    7.1483    1.1175 H         1 <0>         0.0757
     57 H22        -3.8035    5.5487    0.5421 H         1 <0>         0.0726
@<TRIPOS>BOND
     1    1    2 1
     2    1   38 1
     3    1   39 1
     4    1   40 1
     5    2    9 1
     6    2    3 2
     7    3    4 1
     8    3   41 1
     9    4    5 am
    10    4   11 1
    11    5    6 2
    12    5    7 am
    13    7    8 1
    14    7    9 am
    15    9   10 2
    16   11   15 1
    17   11   12 1
    18   11   42 1
    19   12   13 2
    20   12   43 1
    21   13   14 1
    22   13   44 1
    23   14   15 1
    24   14   16 1
    25   14   45 1
    26   16   17 1
    27   16   46 1
    28   16   47 1
    29   17   18 1
    30   18   19 2
    31   18   20 1
    32   18   21 1
    33   21   22 1
    34   22   23 1
    35   22   48 1
    36   22   49 1
    37   23   27 1
    38   23   24 1
    39   23   50 1
    40   24   25 2
    41   24   51 1
    42   25   26 1
    43   25   52 1
    44   26   27 1
    45   26   28 1
    46   26   53 1
    47   28   35 am
    48   28   29 1
    49   29   30 2
    50   29   54 1
    51   30   31 1
    52   30   37 1
    53   31   32 2
    54   31   33 am
    55   33   34 1
    56   33   35 am
    57   35   36 2
    58   37   55 1
    59   37   56 1
    60   37   57 1
@<TRIPOS>MOLECULE
CHEMBL352398__4
   57    60     0     0     0
SMALL
USER_CHARGES

@<TRIPOS>ATOM
      1 C1          2.6185   -2.9266   -1.7966 C.3       1 <0>        -0.0792
      2 C2          1.5025   -2.3151   -0.9893 C.2       1 <0>        -0.2628
      3 C3          0.3090   -2.9386   -0.8898 C.2       1 <0>         0.1626
      4 N1         -0.6935   -2.3693   -0.1527 N.am      1 <0>        -0.5499
      5 C4         -0.5011   -1.1943    0.4737 C.2       1 <0>         0.6883
      6 O1         -1.4056   -0.7063    1.1234 O.2       1 <0>        -0.4878
      7 N2          0.6786   -0.5515    0.3916 N.am      1 <0>        -0.6469
      8 H1          0.8006    0.2946    0.8500 H         1 <0>         0.4238
      9 C5          1.6934   -1.0820   -0.3204 C.2       1 <0>         0.5549
     10 O2          2.7628   -0.5037   -0.3909 O.2       1 <0>        -0.5120
     11 C6         -1.9887   -3.0455   -0.0451 C.3       1 <0>         0.3140
     12 C7         -2.2874   -3.8066   -1.3165 C.2       1 <0>        -0.2157
     13 C8         -3.1417   -3.1074   -2.0263 C.2       1 <0>        -0.1285
     14 C9         -3.4635   -1.8385   -1.2704 C.3       1 <0>         0.0726
     15 O3         -3.0461   -2.0765    0.0874 O.3       1 <0>        -0.2987
     16 C10        -2.6881   -0.6599   -1.8625 C.3       1 <0>         0.1351
     17 O4         -3.0750    0.5458   -1.2000 O.3       1 <0>        -0.7431
     18 P1         -2.4758    1.9894   -1.5860 P.3       1 <0>         2.2334
     19 O5         -0.9425    1.9780   -1.3967 O.2       1 <0>        -1.0907
     20 O6         -2.8105    2.3085   -3.0602 O.3       1 <0>        -1.1113
     21 O7         -3.1258    3.1125   -0.6329 O.3       1 <0>        -0.7408
     22 C11        -2.7211    4.4827   -0.6567 C.3       1 <0>         0.1359
     23 C12        -3.5364    5.2733    0.3686 C.3       1 <0>         0.0737
     24 C13        -3.1539    6.7351    0.3244 C.2       1 <0>        -0.1299
     25 C14        -2.3547    6.9844    1.3353 C.2       1 <0>        -0.2152
     26 C15        -2.1568    5.7038    2.1136 C.3       1 <0>         0.3139
     27 O8         -3.2239    4.8282    1.7023 O.3       1 <0>        -0.2966
     28 N3         -0.8591    5.1082    1.7858 N.am      1 <0>        -0.5515
     29 C16         0.2245    5.9171    1.5767 C.2       1 <0>         0.1637
     30 C17         1.4205    5.3681    1.2746 C.2       1 <0>        -0.2643
     31 C18         1.5278    3.9596    1.1803 C.2       1 <0>         0.5538
     32 O9          2.5960    3.4413    0.9096 O.2       1 <0>        -0.5142
     33 N4          0.4362    3.1972    1.3936 N.am      1 <0>        -0.6446
     34 H2          0.5018    2.2314    1.3307 H         1 <0>         0.4247
     35 C19        -0.7427    3.7706    1.6986 C.2       1 <0>         0.6853
     36 O10        -1.7172    3.0702    1.8935 O.2       1 <0>        -0.4809
     37 C20         2.6250    6.2429    1.0405 C.3       1 <0>        -0.0743
     38 H3          3.4642   -2.2395   -1.8262 H         1 <0>         0.0796
     39 H4          2.9284   -3.8646   -1.3359 H         1 <0>         0.0649
     40 H5          2.2701   -3.1179   -2.8115 H         1 <0>         0.0663
     41 H6          0.1463   -3.8819   -1.3898 H         1 <0>         0.1718
     42 H7         -1.9894   -3.7225    0.8092 H         1 <0>         0.1266
     43 H8         -1.8688   -4.7628   -1.5938 H         1 <0>         0.1608
     44 H9         -3.5462   -3.3906   -2.9868 H         1 <0>         0.1602
     45 H10        -4.5348   -1.6408   -1.3057 H         1 <0>         0.1208
     46 H11        -1.6191   -0.8227   -1.7256 H         1 <0>         0.0471
     47 H12        -2.9097   -0.5769   -2.9265 H         1 <0>         0.0591
     48 H13        -1.6616    4.5530   -0.4106 H         1 <0>         0.0470
     49 H14        -2.8910    4.8945   -1.6516 H         1 <0>         0.0573
     50 H15        -4.6021    5.1558    0.1726 H         1 <0>         0.1201
     51 H16        -3.4821    7.4521   -0.4135 H         1 <0>         0.1595
     52 H17        -1.9139    7.9418    1.5711 H         1 <0>         0.1599
     53 H18        -2.2221    5.8998    3.1838 H         1 <0>         0.1257
     54 H19         0.1236    6.9897    1.6526 H         1 <0>         0.1709
     55 H20         3.1456    6.4048    1.9844 H         1 <0>         0.0651
     56 H21         3.2967    5.7550    0.3342 H         1 <0>         0.0762
     57 H22         2.3041    7.2018    0.6335 H         1 <0>         0.0645
@<TRIPOS>BOND
     1    1    2 1
     2    1   38 1
     3    1   39 1
     4    1   40 1
     5    2    9 1
     6    2    3 2
     7    3    4 1
     8    3   41 1
     9    4    5 am
    10    4   11 1
    11    5    6 2
    12    5    7 am
    13    7    8 1
    14    7    9 am
    15    9   10 2
    16   11   15 1
    17   11   12 1
    18   11   42 1
    19   12   13 2
    20   12   43 1
    21   13   14 1
    22   13   44 1
    23   14   15 1
    24   14   16 1
    25   14   45 1
    26   16   17 1
    27   16   46 1
    28   16   47 1
    29   17   18 1
    30   18   19 2
    31   18   20 1
    32   18   21 1
    33   21   22 1
    34   22   23 1
    35   22   48 1
    36   22   49 1
    37   23   27 1
    38   23   24 1
    39   23   50 1
    40   24   25 2
    41   24   51 1
    42   25   26 1
    43   25   52 1
    44   26   27 1
    45   26   28 1
    46   26   53 1
    47   28   35 am
    48   28   29 1
    49   29   30 2
    50   29   54 1
    51   30   31 1
    52   30   37 1
    53   31   32 2
    54   31   33 am
    55   33   34 1
    56   33   35 am
    57   35   36 2
    58   37   55 1
    59   37   56 1
    60   37   57 1
@<TRIPOS>MOLECULE
CHEMBL352398__5
   57    60     0     0     0
SMALL
USER_CHARGES

@<TRIPOS>ATOM
      1 C1          2.3456   -3.1149   -1.7389 C.3       1 <0>        -0.0794
      2 C2          1.1686   -2.4201   -1.1039 C.2       1 <0>        -0.2654
      3 C3         -0.0566   -2.9870   -1.1310 C.2       1 <0>         0.1651
      4 N1         -1.1144   -2.3425   -0.5496 N.am      1 <0>        -0.5519
      5 C4         -0.9451   -1.1493    0.0485 C.2       1 <0>         0.6888
      6 O1         -1.8988   -0.5940    0.5589 O.2       1 <0>        -0.4917
      7 N2          0.2652   -0.5619    0.0904 N.am      1 <0>        -0.6435
      8 H1          0.3698    0.2983    0.5263 H         1 <0>         0.4352
      9 C5          1.3339   -1.1671   -0.4661 C.2       1 <0>         0.5569
     10 O2          2.4303   -0.6387   -0.4242 O.2       1 <0>        -0.5225
     11 C6         -2.4439   -2.9572   -0.5793 C.3       1 <0>         0.3136
     12 C7         -2.6773   -3.6318   -1.9118 C.2       1 <0>        -0.2164
     13 C8         -3.4404   -2.8527   -2.6420 C.2       1 <0>        -0.1290
     14 C9         -3.7612   -1.6122   -1.8400 C.3       1 <0>         0.0735
     15 O3         -3.4625   -1.9446   -0.4707 O.3       1 <0>        -0.2986
     16 C10        -2.8884   -0.4438   -2.3024 C.3       1 <0>         0.1363
     17 O4         -3.2932    0.7493   -1.6280 O.3       1 <0>        -0.7429
     18 P1         -2.5627    2.1681   -1.8413 P.3       1 <0>         2.2317
     19 O5         -1.0517    2.0173   -1.5563 O.2       1 <0>        -1.0963
     20 O6         -2.7674    2.6388   -3.2985 O.3       1 <0>        -1.1032
     21 O7         -3.1933    3.2534   -0.8331 O.3       1 <0>        -0.7545
     22 C11        -2.6871    4.5836   -0.7056 C.3       1 <0>         0.1407
     23 C12        -3.5120    5.3458    0.3334 C.3       1 <0>         0.0942
     24 C13        -2.9485    6.7345    0.5306 C.2       1 <0>        -0.1489
     25 C14        -3.9476    7.5847    0.5709 C.2       1 <0>        -0.1963
     26 C15        -5.2368    6.8134    0.4029 C.3       1 <0>         0.3251
     27 O8         -4.8585    5.5348   -0.1418 O.3       1 <0>        -0.3416
     28 N3         -6.1284    7.5144   -0.5243 N.am      1 <0>        -0.5299
     29 C16        -6.5399    6.8910   -1.6708 C.2       1 <0>         0.1851
     30 C17        -7.3617    7.5372   -2.5253 C.2       1 <0>        -0.2731
     31 C18        -7.7820    8.8529   -2.2146 C.2       1 <0>         0.5562
     32 O9         -8.5234    9.4556   -2.9696 O.2       1 <0>        -0.5170
     33 N4         -7.3542    9.4322   -1.0747 N.am      1 <0>        -0.6579
     34 H2         -7.6378   10.3334   -0.8548 H         1 <0>         0.4298
     35 C19        -6.5395    8.7631   -0.2379 C.2       1 <0>         0.7031
     36 O10        -6.1660    9.2962    0.7890 O.2       1 <0>        -0.5412
     37 C20        -7.8249    6.8670   -3.7931 C.3       1 <0>        -0.0794
     38 H3          3.2225   -2.4701   -1.6812 H         1 <0>         0.0790
     39 H4          2.5450   -4.0475   -1.2111 H         1 <0>         0.0648
     40 H5          2.1205   -3.3296   -2.7835 H         1 <0>         0.0663
     41 H6         -0.2010   -3.9444   -1.6094 H         1 <0>         0.1715
     42 H7         -2.5425   -3.6788    0.2316 H         1 <0>         0.1265
     43 H8         -2.2830   -4.5914   -2.2119 H         1 <0>         0.1602
     44 H9         -3.7815   -3.0623   -3.6451 H         1 <0>         0.1601
     45 H10        -4.8162   -1.3590   -1.9442 H         1 <0>         0.1221
     46 H11        -1.8447   -0.6559   -2.0705 H         1 <0>         0.0475
     47 H12        -3.0014   -0.3093   -3.3781 H         1 <0>         0.0597
     48 H13        -1.6454    4.5470   -0.3869 H         1 <0>         0.0752
     49 H14        -2.7551    5.0919   -1.6675 H         1 <0>         0.0612
     50 H15        -3.5192    4.8035    1.2789 H         1 <0>         0.1074
     51 H16        -1.9019    6.9845    0.6231 H         1 <0>         0.1617
     52 H17        -3.8631    8.6534    0.7014 H         1 <0>         0.1592
     53 H18        -5.7250    6.6816    1.3684 H         1 <0>         0.1172
     54 H19        -6.2085    5.8870   -1.8914 H         1 <0>         0.1883
     55 H20        -8.7520    6.3269   -3.6008 H         1 <0>         0.0681
     56 H21        -7.9964    7.6213   -4.5611 H         1 <0>         0.0744
     57 H22        -7.0614    6.1680   -4.1345 H         1 <0>         0.0747
@<TRIPOS>BOND
     1    1    2 1
     2    1   38 1
     3    1   39 1
     4    1   40 1
     5    2    9 1
     6    2    3 2
     7    3    4 1
     8    3   41 1
     9    4    5 am
    10    4   11 1
    11    5    6 2
    12    5    7 am
    13    7    8 1
    14    7    9 am
    15    9   10 2
    16   11   15 1
    17   11   12 1
    18   11   42 1
    19   12   13 2
    20   12   43 1
    21   13   14 1
    22   13   44 1
    23   14   15 1
    24   14   16 1
    25   14   45 1
    26   16   17 1
    27   16   46 1
    28   16   47 1
    29   17   18 1
    30   18   19 2
    31   18   20 1
    32   18   21 1
    33   21   22 1
    34   22   23 1
    35   22   48 1
    36   22   49 1
    37   23   27 1
    38   23   24 1
    39   23   50 1
    40   24   25 2
    41   24   51 1
    42   25   26 1
    43   25   52 1
    44   26   27 1
    45   26   28 1
    46   26   53 1
    47   28   35 am
    48   28   29 1
    49   29   30 2
    50   29   54 1
    51   30   31 1
    52   30   37 1
    53   31   32 2
    54   31   33 am
    55   33   34 1
    56   33   35 am
    57   35   36 2
    58   37   55 1
    59   37   56 1
    60   37   57 1
@<TRIPOS>MOLECULE
CHEMBL352398__6
   57    60     0     0     0
SMALL
USER_CHARGES

@<TRIPOS>ATOM
      1 C1          3.7512   -1.9916   -1.0498 C.3       1 <0>        -0.0794
      2 C2          2.4830   -1.4365   -0.4542 C.2       1 <0>        -0.2654
      3 C3          1.3596   -2.1847   -0.4179 C.2       1 <0>         0.1648
      4 N1          0.2167   -1.6651    0.1264 N.am      1 <0>        -0.5522
      5 C4          0.2019   -0.4159    0.6257 C.2       1 <0>         0.6894
      6 O1         -0.8245    0.0260    1.1047 O.2       1 <0>        -0.4920
      7 N2          1.3075    0.3515    0.6027 N.am      1 <0>        -0.6418
      8 H1          1.2797    1.2498    0.9676 H         1 <0>         0.4357
      9 C5          2.4552   -0.1257    0.0799 C.2       1 <0>         0.5568
     10 O2          3.4573    0.5660    0.0634 O.2       1 <0>        -0.5231
     11 C6         -1.0024   -2.4766    0.1654 C.3       1 <0>         0.3138
     12 C7         -1.1332   -3.2834   -1.1062 C.2       1 <0>        -0.2162
     13 C8         -2.0093   -2.6913   -1.8838 C.2       1 <0>        -0.1295
     14 C9         -2.5148   -1.4545   -1.1769 C.3       1 <0>         0.0736
     15 O3         -2.1644   -1.6266    0.2096 O.3       1 <0>        -0.2983
     16 C10        -1.8335   -0.2069   -1.7430 C.3       1 <0>         0.1362
     17 O4         -2.4098    0.9598   -1.1526 O.3       1 <0>        -0.7429
     18 P1         -1.8813    2.4495   -1.4583 P.3       1 <0>         2.2326
     19 O5         -0.3715    2.5355   -1.1416 O.2       1 <0>        -1.0948
     20 O6         -2.1147    2.7830   -2.9488 O.3       1 <0>        -1.1039
     21 O7         -2.6828    3.5022   -0.5410 O.3       1 <0>        -0.7555
     22 C11        -2.3723    4.8966   -0.5037 C.3       1 <0>         0.1449
     23 C12        -3.3213    5.6047    0.4652 C.3       1 <0>         0.0724
     24 C13        -2.9640    7.0698    0.5686 C.2       1 <0>        -0.1421
     25 C14        -4.0735    7.7700    0.5325 C.2       1 <0>        -0.1963
     26 C15        -5.2368    6.8134    0.4029 C.3       1 <0>         0.3125
     27 O8         -4.6690    5.5665   -0.0417 O.3       1 <0>        -0.3201
     28 N3         -5.8930    6.6362    1.7006 N.am      1 <0>        -0.5370
     29 C16        -5.6820    5.4889    2.4158 C.2       1 <0>         0.1723
     30 C17        -6.2869    5.3257    3.6118 C.2       1 <0>        -0.2684
     31 C18        -7.1309    6.3510    4.1025 C.2       1 <0>         0.5564
     32 O9         -7.6870    6.2267    5.1788 O.2       1 <0>        -0.5166
     33 N4         -7.3129    7.4665    3.3673 N.am      1 <0>        -0.6583
     34 H2         -7.8897    8.1734    3.6968 H         1 <0>         0.4296
     35 C19        -6.6932    7.6055    2.1806 C.2       1 <0>         0.7026
     36 O10        -6.8625    8.6193    1.5311 O.2       1 <0>        -0.5404
     37 C20        -6.0669    4.0687    4.4135 C.3       1 <0>        -0.0802
     38 H3          4.5165   -1.2156   -1.0628 H         1 <0>         0.0789
     39 H4          4.0969   -2.8328   -0.4489 H         1 <0>         0.0647
     40 H5          3.5574   -2.3280   -2.0683 H         1 <0>         0.0660
     41 H6          1.3629   -3.1882   -0.8169 H         1 <0>         0.1711
     42 H7         -0.9864   -3.1376    1.0319 H         1 <0>         0.1265
     43 H8         -0.5968   -4.1922   -1.3359 H         1 <0>         0.1600
     44 H9         -2.3170   -3.0303   -2.8619 H         1 <0>         0.1599
     45 H10        -3.5965   -1.3750   -1.2846 H         1 <0>         0.1219
     46 H11        -0.7679   -0.2403   -1.5162 H         1 <0>         0.0477
     47 H12        -1.9743   -0.1747   -2.8234 H         1 <0>         0.0596
     48 H13        -1.3439    5.0309   -0.1683 H         1 <0>         0.0758
     49 H14        -2.4877    5.3213   -1.5009 H         1 <0>         0.0648
     50 H15        -3.2752    5.1346    1.4475 H         1 <0>         0.0997
     51 H16        -1.9655    7.4720    0.6568 H         1 <0>         0.1626
     52 H17        -4.1436    8.8464    0.5866 H         1 <0>         0.1601
     53 H18        -5.9500    7.1856   -0.3326 H         1 <0>         0.1408
     54 H19        -5.0350    4.7174    2.0252 H         1 <0>         0.1830
     55 H20        -5.2098    4.2039    5.0733 H         1 <0>         0.0695
     56 H21        -6.9547    3.8581    5.0098 H         1 <0>         0.0752
     57 H22        -5.8771    3.2351    3.7374 H         1 <0>         0.0730
@<TRIPOS>BOND
     1    1    2 1
     2    1   38 1
     3    1   39 1
     4    1   40 1
     5    2    9 1
     6    2    3 2
     7    3    4 1
     8    3   41 1
     9    4    5 am
    10    4   11 1
    11    5    6 2
    12    5    7 am
    13    7    8 1
    14    7    9 am
    15    9   10 2
    16   11   15 1
    17   11   12 1
    18   11   42 1
    19   12   13 2
    20   12   43 1
    21   13   14 1
    22   13   44 1
    23   14   15 1
    24   14   16 1
    25   14   45 1
    26   16   17 1
    27   16   46 1
    28   16   47 1
    29   17   18 1
    30   18   19 2
    31   18   20 1
    32   18   21 1
    33   21   22 1
    34   22   23 1
    35   22   48 1
    36   22   49 1
    37   23   27 1
    38   23   24 1
    39   23   50 1
    40   24   25 2
    41   24   51 1
    42   25   26 1
    43   25   52 1
    44   26   27 1
    45   26   28 1
    46   26   53 1
    47   28   35 am
    48   28   29 1
    49   29   30 2
    50   29   54 1
    51   30   31 1
    52   30   37 1
    53   31   32 2
    54   31   33 am
    55   33   34 1
    56   33   35 am
    57   35   36 2
    58   37   55 1
    59   37   56 1
    60   37   57 1
@<TRIPOS>MOLECULE
CHEMBL352398__7
   57    60     0     0     0
SMALL
USER_CHARGES

@<TRIPOS>ATOM
      1 C1          0.1864    1.6960    0.2721 C.3       1 <0>        -0.0804
      2 C2          0.1673    0.1902    0.2148 C.2       1 <0>        -0.2713
      3 C3         -1.0054   -0.4788    0.1954 C.2       1 <0>         0.1767
      4 N1         -1.0047   -1.8462    0.1433 N.am      1 <0>        -0.5282
      5 C4          0.1535   -2.5301    0.1112 C.2       1 <0>         0.6908
      6 O1          0.1311   -3.7449    0.0650 O.2       1 <0>        -0.5010
      7 N2          1.3366   -1.8885    0.1290 N.am      1 <0>        -0.6599
      8 H1          2.1623   -2.3970    0.1047 H         1 <0>         0.4307
      9 C5          1.3786   -0.5416    0.1747 C.2       1 <0>         0.5567
     10 O2          2.4485    0.0399    0.1857 O.2       1 <0>        -0.5209
     11 C6         -2.2769   -2.5722    0.1227 C.3       1 <0>         0.3202
     12 C7         -2.4152   -3.3465   -1.1681 C.2       1 <0>        -0.2100
     13 C8         -2.8767   -4.5424   -0.8860 C.2       1 <0>        -0.1303
     14 C9         -3.0736   -4.6366    0.6098 C.3       1 <0>         0.0963
     15 O3         -2.3046   -3.5570    1.1735 O.3       1 <0>        -0.3338
     16 C10        -2.5560   -5.9803    1.1271 C.3       1 <0>         0.1423
     17 O4         -2.8542   -6.1015    2.5193 O.3       1 <0>        -0.7555
     18 P1         -2.4531   -7.3931    3.3928 P.3       1 <0>         2.2323
     19 O5         -3.0282   -8.6635    2.7277 O.2       1 <0>        -1.0979
     20 O6         -0.9141   -7.5044    3.4707 O.3       1 <0>        -1.1039
     21 O7         -3.0563   -7.2450    4.8781 O.3       1 <0>        -0.7416
     22 C11        -2.9618   -8.2761    5.8630 C.3       1 <0>         0.1351
     23 C12        -3.6345   -7.8099    7.1556 C.3       1 <0>         0.0734
     24 C13        -3.5090   -8.8736    8.2223 C.2       1 <0>        -0.1283
     25 C14        -4.6529   -9.5115    8.3073 C.2       1 <0>        -0.2168
     26 C15        -5.6092   -8.9111    7.3023 C.3       1 <0>         0.3139
     27 O8         -5.0484   -7.6335    6.9448 O.3       1 <0>        -0.2980
     28 N3         -5.7052   -9.7702    6.1195 N.am      1 <0>        -0.5512
     29 C16        -5.6833  -11.1304    6.2663 C.2       1 <0>         0.1649
     30 C17        -5.7717  -11.9221    5.1761 C.2       1 <0>        -0.2654
     31 C18        -5.8858  -11.3241    3.8980 C.2       1 <0>         0.5579
     32 O9         -5.9674  -12.0175    2.9001 O.2       1 <0>        -0.5223
     33 N4         -5.9038   -9.9797    3.7957 N.am      1 <0>        -0.6440
     34 H2         -5.9818   -9.5626    2.9235 H         1 <0>         0.4339
     35 C19        -5.8196   -9.2143    4.8997 C.2       1 <0>         0.6890
     36 O10        -5.8424   -8.0034    4.7926 O.2       1 <0>        -0.4923
     37 C20        -5.7488  -13.4223    5.3180 C.3       1 <0>        -0.0747
     38 H3          1.2185    2.0464    0.2751 H         1 <0>         0.0787
     39 H4         -0.3317    2.0993   -0.5979 H         1 <0>         0.0676
     40 H5         -0.3138    2.0314    1.1806 H         1 <0>         0.0683
     41 H6         -1.9395    0.0627    0.2213 H         1 <0>         0.1772
     42 H7         -3.1085   -1.8768    0.2368 H         1 <0>         0.1233
     43 H8         -2.1749   -2.9784   -2.1546 H         1 <0>         0.1512
     44 H9         -3.0813   -5.3256   -1.6009 H         1 <0>         0.1581
     45 H10        -4.1281   -4.5176    0.8588 H         1 <0>         0.1021
     46 H11        -3.0385   -6.7904    0.5803 H         1 <0>         0.0693
     47 H12        -1.4773   -6.0349    0.9805 H         1 <0>         0.0668
     48 H13        -3.4598   -9.1742    5.4976 H         1 <0>         0.0466
     49 H14        -1.9124   -8.4966    6.0585 H         1 <0>         0.0598
     50 H15        -3.1857   -6.8774    7.4978 H         1 <0>         0.1212
     51 H16        -2.6279   -9.0747    8.8136 H         1 <0>         0.1600
     52 H17        -4.8735  -10.3264    8.9808 H         1 <0>         0.1601
     53 H18        -6.5931   -8.7776    7.7522 H         1 <0>         0.1262
     54 H19        -5.5953  -11.5687    7.2494 H         1 <0>         0.1713
     55 H20        -6.7671  -13.7912    5.4405 H         1 <0>         0.0651
     56 H21        -5.3069  -13.8649    4.4252 H         1 <0>         0.0759
     57 H22        -5.1558  -13.6957    6.1907 H         1 <0>         0.0649
@<TRIPOS>BOND
     1    1    2 1
     2    1   38 1
     3    1   39 1
     4    1   40 1
     5    2    9 1
     6    2    3 2
     7    3    4 1
     8    3   41 1
     9    4    5 am
    10    4   11 1
    11    5    6 2
    12    5    7 am
    13    7    8 1
    14    7    9 am
    15    9   10 2
    16   11   15 1
    17   11   12 1
    18   11   42 1
    19   12   13 2
    20   12   43 1
    21   13   14 1
    22   13   44 1
    23   14   15 1
    24   14   16 1
    25   14   45 1
    26   16   17 1
    27   16   46 1
    28   16   47 1
    29   17   18 1
    30   18   19 2
    31   18   20 1
    32   18   21 1
    33   21   22 1
    34   22   23 1
    35   22   48 1
    36   22   49 1
    37   23   27 1
    38   23   24 1
    39   23   50 1
    40   24   25 2
    41   24   51 1
    42   25   26 1
    43   25   52 1
    44   26   27 1
    45   26   28 1
    46   26   53 1
    47   28   35 am
    48   28   29 1
    49   29   30 2
    50   29   54 1
    51   30   31 1
    52   30   37 1
    53   31   32 2
    54   31   33 am
    55   33   34 1
    56   33   35 am
    57   35   36 2
    58   37   55 1
    59   37   56 1
    60   37   57 1
@<TRIPOS>MOLECULE
CHEMBL352398__8
   57    60     0     0     0
SMALL
USER_CHARGES

@<TRIPOS>ATOM
      1 C1          0.1426    1.6461    0.1995 C.3       1 <0>        -0.0809
      2 C2          0.1527    0.1396    0.1639 C.2       1 <0>        -0.2698
      3 C3         -1.0068   -0.5519    0.1399 C.2       1 <0>         0.1757
      4 N1         -0.9795   -1.9196    0.1078 N.am      1 <0>        -0.5286
      5 C4          0.1917   -2.5817    0.0998 C.2       1 <0>         0.6913
      6 O1          0.1929   -3.7972    0.0711 O.2       1 <0>        -0.5016
      7 N2          1.3621   -1.9174    0.1228 N.am      1 <0>        -0.6599
      8 H1          2.1975   -2.4103    0.1160 H         1 <0>         0.4309
      9 C5          1.3780   -0.5694    0.1493 C.2       1 <0>         0.5563
     10 O2          2.4365    0.0325    0.1649 O.2       1 <0>        -0.5200
     11 C6         -2.2375   -2.6701    0.0822 C.3       1 <0>         0.3205
     12 C7         -2.3449   -3.4653   -1.1988 C.2       1 <0>        -0.2084
     13 C8         -2.7872   -4.6656   -0.9050 C.2       1 <0>        -0.1319
     14 C9         -3.0009   -4.7421    0.5895 C.3       1 <0>         0.0965
     15 O3         -2.2596   -3.6401    1.1468 O.3       1 <0>        -0.3337
     16 C10        -2.4645   -6.0681    1.1327 C.3       1 <0>         0.1406
     17 O4         -2.7778   -6.1750    2.5228 O.3       1 <0>        -0.7567
     18 P1         -2.3632   -7.4461    3.4198 P.3       1 <0>         2.2305
     19 O5         -2.9058   -8.7366    2.7663 O.2       1 <0>        -1.1035
     20 O6         -0.8235   -7.5268    3.5182 O.3       1 <0>        -1.0952
     21 O7         -2.9877   -7.2882    4.8954 O.3       1 <0>        -0.7564
     22 C11        -2.8860   -8.3031    5.8962 C.3       1 <0>         0.1430
     23 C12        -3.5836   -7.8313    7.1736 C.3       1 <0>         0.0722
     24 C13        -3.5446   -8.9196    8.2220 C.2       1 <0>        -0.1426
     25 C14        -3.2348   -8.3732    9.3744 C.2       1 <0>        -0.1955
     26 C15        -3.0489   -6.8880    9.1631 C.3       1 <0>         0.3121
     27 O8         -2.8749   -6.7145    7.7438 O.3       1 <0>        -0.3193
     28 N3         -4.2350   -6.1597    9.6200 N.am      1 <0>        -0.5369
     29 C16        -5.1284   -5.6762    8.7033 C.2       1 <0>         0.1729
     30 C17        -6.2216   -5.0049    9.1245 C.2       1 <0>        -0.2696
     31 C18        -6.4206   -4.8149   10.5133 C.2       1 <0>         0.5565
     32 O9         -7.3991   -4.2131   10.9173 O.2       1 <0>        -0.5167
     33 N4         -5.5167   -5.3069   11.3846 N.am      1 <0>        -0.6583
     34 H2         -5.6461   -5.1808   12.3376 H         1 <0>         0.4298
     35 C19        -4.4385   -5.9771   10.9374 C.2       1 <0>         0.7024
     36 O10        -3.6346   -6.4197   11.7350 O.2       1 <0>        -0.5395
     37 C20        -7.2164   -4.4647    8.1297 C.3       1 <0>        -0.0795
     38 H3          1.1678    2.0162    0.2101 H         1 <0>         0.0788
     39 H4         -0.3721    2.0270   -0.6826 H         1 <0>         0.0678
     40 H5         -0.3752    1.9849    1.0968 H         1 <0>         0.0686
     41 H6         -1.9512   -0.0281    0.1464 H         1 <0>         0.1771
     42 H7         -3.0834   -1.9891    0.1759 H         1 <0>         0.1233
     43 H8         -2.0992   -3.1069   -2.1875 H         1 <0>         0.1512
     44 H9         -2.9680   -5.4628   -1.6108 H         1 <0>         0.1582
     45 H10        -4.0605   -4.6398    0.8239 H         1 <0>         0.1015
     46 H11        -2.9247   -6.8950    0.5919 H         1 <0>         0.0705
     47 H12        -1.3832   -6.1042    1.0001 H         1 <0>         0.0696
     48 H13        -3.3624   -9.2157    5.5380 H         1 <0>         0.0764
     49 H14        -1.8352   -8.5007    6.1078 H         1 <0>         0.0674
     50 H15        -4.6148   -7.5520    6.9576 H         1 <0>         0.0991
     51 H16        -3.7382   -9.9684    8.0516 H         1 <0>         0.1629
     52 H17        -3.1309   -8.8957   10.3139 H         1 <0>         0.1601
     53 H18        -2.1641   -6.5399    9.6961 H         1 <0>         0.1413
     54 H19        -4.9598   -5.8306    7.6478 H         1 <0>         0.1827
     55 H20        -7.9807   -5.2171    7.9351 H         1 <0>         0.0692
     56 H21        -7.6844   -3.5675    8.5346 H         1 <0>         0.0753
     57 H22        -6.7034   -4.2190    7.1999 H         1 <0>         0.0722
@<TRIPOS>BOND
     1    1    2 1
     2    1   38 1
     3    1   39 1
     4    1   40 1
     5    2    9 1
     6    2    3 2
     7    3    4 1
     8    3   41 1
     9    4    5 am
    10    4   11 1
    11    5    6 2
    12    5    7 am
    13    7    8 1
    14    7    9 am
    15    9   10 2
    16   11   15 1
    17   11   12 1
    18   11   42 1
    19   12   13 2
    20   12   43 1
    21   13   14 1
    22   13   44 1
    23   14   15 1
    24   14   16 1
    25   14   45 1
    26   16   17 1
    27   16   46 1
    28   16   47 1
    29   17   18 1
    30   18   19 2
    31   18   20 1
    32   18   21 1
    33   21   22 1
    34   22   23 1
    35   22   48 1
    36   22   49 1
    37   23   27 1
    38   23   24 1
    39   23   50 1
    40   24   25 2
    41   24   51 1
    42   25   26 1
    43   25   52 1
    44   26   27 1
    45   26   28 1
    46   26   53 1
    47   28   35 am
    48   28   29 1
    49   29   30 2
    50   29   54 1
    51   30   31 1
    52   30   37 1
    53   31   32 2
    54   31   33 am
    55   33   34 1
    56   33   35 am
    57   35   36 2
    58   37   55 1
    59   37   56 1
    60   37   57 1
@<TRIPOS>MOLECULE
CHEMBL352398__9
   57    60     0     0     0
SMALL
USER_CHARGES

@<TRIPOS>ATOM
      1 C1          0.1318    1.2668   -0.0936 C.3       1 <0>        -0.0818
      2 C2          0.1325   -0.2401   -0.0754 C.2       1 <0>        -0.2699
      3 C3         -1.0312   -0.9248   -0.0678 C.2       1 <0>         0.1776
      4 N1         -1.0124   -2.2929   -0.0512 N.am      1 <0>        -0.5261
      5 C4          0.1547   -2.9621   -0.0424 C.2       1 <0>         0.6952
      6 O1          0.1483   -4.1779   -0.0276 O.2       1 <0>        -0.5148
      7 N2          1.3292   -2.3048   -0.0500 N.am      1 <0>        -0.6607
      8 H1          2.1615   -2.8029   -0.0441 H         1 <0>         0.4290
      9 C5          1.3534   -0.9568   -0.0718 C.2       1 <0>         0.5566
     10 O2          2.4156   -0.3614   -0.0839 O.2       1 <0>        -0.5193
     11 C6         -2.2750   -3.0358   -0.0426 C.3       1 <0>         0.3177
     12 C7         -2.3951   -3.8756   -1.2937 C.2       1 <0>        -0.2042
     13 C8         -2.8428   -5.0618   -0.9546 C.2       1 <0>        -0.1318
     14 C9         -3.0480   -5.0836    0.5429 C.3       1 <0>         0.0956
     15 O3         -2.2966   -3.9670    1.0561 O.3       1 <0>        -0.3338
     16 C10        -4.5323   -4.9190    0.8752 C.3       1 <0>         0.1268
     17 O4         -4.7232   -5.0580    2.2846 O.3       1 <0>        -0.7533
     18 P1         -6.1660   -4.9428    2.9896 P.3       1 <0>         2.2310
     19 O5         -6.8196   -3.5959    2.6079 O.2       1 <0>        -1.1024
     20 O6         -7.0660   -6.1050    2.5140 O.3       1 <0>        -1.0970
     21 O7         -5.9899   -5.0199    4.5881 O.3       1 <0>        -0.7560
     22 C11        -7.0756   -4.8425    5.5002 C.3       1 <0>         0.1435
     23 C12        -6.5632   -4.9779    6.9355 C.3       1 <0>         0.0719
     24 C13        -7.6856   -4.7262    7.9162 C.2       1 <0>        -0.1430
     25 C14        -7.6200   -5.6339    8.8620 C.2       1 <0>        -0.1951
     26 C15        -6.4501   -6.5448    8.5681 C.3       1 <0>         0.3125
     27 O8         -6.1249   -6.3276    7.1818 O.3       1 <0>        -0.3197
     28 N3         -5.3090   -6.1924    9.4165 N.am      1 <0>        -0.5371
     29 C16        -4.2601   -5.4924    8.8853 C.2       1 <0>         0.1718
     30 C17        -3.2084   -5.1676    9.6674 C.2       1 <0>        -0.2679
     31 C18        -3.2141   -5.5607   11.0274 C.2       1 <0>         0.5562
     32 O9         -2.2771   -5.2789   11.7524 O.2       1 <0>        -0.5160
     33 N4         -4.2668   -6.2495   11.5127 N.am      1 <0>        -0.6582
     34 H2         -4.2779   -6.5223   12.4435 H         1 <0>         0.4298
     35 C19        -5.3046   -6.5553   10.7121 C.2       1 <0>         0.7027
     36 O10        -6.2495   -7.1722   11.1648 O.2       1 <0>        -0.5401
     37 C20        -2.0440   -4.3975    9.0999 C.3       1 <0>        -0.0804
     38 H3          1.1592    1.6306   -0.1023 H         1 <0>         0.0785
     39 H4         -0.3860    1.6191   -0.9857 H         1 <0>         0.0691
     40 H5         -0.3785    1.6406    0.7941 H         1 <0>         0.0701
     41 H6         -1.9724   -0.3951   -0.0745 H         1 <0>         0.1803
     42 H7         -3.1162   -2.3466    0.0317 H         1 <0>         0.1274
     43 H8         -2.1538   -3.5540   -2.2961 H         1 <0>         0.1521
     44 H9         -3.0327   -5.8826   -1.6304 H         1 <0>         0.1584
     45 H10        -2.6692   -6.0162    0.9611 H         1 <0>         0.1179
     46 H11        -4.8681   -3.9315    0.5588 H         1 <0>         0.0586
     47 H12        -5.1084   -5.6831    0.3534 H         1 <0>         0.0707
     48 H13        -7.5088   -3.8520    5.3610 H         1 <0>         0.0765
     49 H14        -7.8354   -5.6011    5.3125 H         1 <0>         0.0675
     50 H15        -5.7453   -4.2788    7.1101 H         1 <0>         0.0993
     51 H16        -8.4171   -3.9344    7.8499 H         1 <0>         0.1629
     52 H17        -8.2881   -5.7158    9.7066 H         1 <0>         0.1601
     53 H18        -6.7331   -7.5850    8.7298 H         1 <0>         0.1413
     54 H19        -4.2732   -5.2014    7.8453 H         1 <0>         0.1827
     55 H20        -2.2240   -3.3287    9.2160 H         1 <0>         0.0694
     56 H21        -1.1330   -4.6723    9.6315 H         1 <0>         0.0756
     57 H22        -1.9327   -4.6343    8.0418 H         1 <0>         0.0726
@<TRIPOS>BOND
     1    1    2 1
     2    1   38 1
     3    1   39 1
     4    1   40 1
     5    2    9 1
     6    2    3 2
     7    3    4 1
     8    3   41 1
     9    4    5 am
    10    4   11 1
    11    5    6 2
    12    5    7 am
    13    7    8 1
    14    7    9 am
    15    9   10 2
    16   11   15 1
    17   11   12 1
    18   11   42 1
    19   12   13 2
    20   12   43 1
    21   13   14 1
    22   13   44 1
    23   14   15 1
    24   14   16 1
    25   14   45 1
    26   16   17 1
    27   16   46 1
    28   16   47 1
    29   17   18 1
    30   18   19 2
    31   18   20 1
    32   18   21 1
    33   21   22 1
    34   22   23 1
    35   22   48 1
    36   22   49 1
    37   23   27 1
    38   23   24 1
    39   23   50 1
    40   24   25 2
    41   24   51 1
    42   25   26 1
    43   25   52 1
    44   26   27 1
    45   26   28 1
    46   26   53 1
    47   28   35 am
    48   28   29 1
    49   29   30 2
    50   29   54 1
    51   30   31 1
    52   30   37 1
    53   31   32 2
    54   31   33 am
    55   33   34 1
    56   33   35 am
    57   35   36 2
    58   37   55 1
    59   37   56 1
    60   37   57 1
@<TRIPOS>MOLECULE
CHEMBL79526
   34    37     0     0     0
SMALL
USER_CHARGES

@<TRIPOS>ATOM
      1 C1         -0.0167    1.3794    0.0096 C.ar      1 <0>        -0.0602
      2 C2          1.1662    2.0932    0.0022 C.ar      1 <0>        -0.1436
      3 C3          2.3798    1.4195   -0.0131 C.ar      1 <0>         0.1863
      4 C4          2.3898    0.0286   -0.0207 C.ar      1 <0>        -0.1192
      5 C5          1.2116   -0.6809   -0.0136 C.ar      1 <0>        -0.0466
      6 C6          0.0021   -0.0041    0.0020 C.ar      1 <0>        -0.0615
      7 Cl1        -1.4895   -0.8923    0.0121 Cl        1 <0>        -0.0565
      8 C7          3.7286   -0.6723   -0.0372 C.3       1 <0>         0.3670
      9 N1          4.9281    0.1824   -0.0441 N.am      1 <0>        -0.7099
     10 C8          4.7807    1.5195   -0.0355 C.2       1 <0>         0.7144
     11 O1          5.7797    2.2126   -0.0417 O.2       1 <0>        -0.5646
     12 N2          3.5854    2.1230   -0.0213 N.am      1 <0>        -0.6590
     13 C9          3.7765   -1.5315   -1.2315 C.1       1 <0>        -0.0980
     14 C10         3.8147   -2.2167   -2.1840 C.1       1 <0>        -0.0676
     15 C11         3.8613   -3.0526   -3.3458 C.2       1 <0>         0.1980
     16 N3          2.9465   -3.2339   -4.2904 N.2       1 <0>        -0.4759
     17 C12         3.1595   -4.0480   -5.2965 C.2       1 <0>         0.0243
     18 C13         4.3363   -4.7245   -5.3839 C.2       1 <0>        -0.1883
     19 S1          5.1705   -4.1271   -3.9190 S.3       1 <0>         0.0501
     20 C14         3.8020   -1.5786    1.1932 C.3       1 <0>        -0.1740
     21 C15         4.7931   -1.1961    2.2943 C.3       1 <0>        -0.1615
     22 C16         5.0787   -2.3981    1.3918 C.3       1 <0>        -0.1679
     23 H1         -0.9606    1.9038    0.0260 H         1 <0>         0.1454
     24 H2          1.1467    3.1730    0.0078 H         1 <0>         0.1459
     25 H3          1.2287   -1.7608   -0.0199 H         1 <0>         0.1455
     26 H4          5.8133   -0.2140   -0.0544 H         1 <0>         0.4327
     27 H5          3.5560    3.0925   -0.0157 H         1 <0>         0.4294
     28 H6          2.4015   -4.1812   -6.0542 H         1 <0>         0.1768
     29 H7          4.6750   -5.4248   -6.1330 H         1 <0>         0.2061
     30 H8          2.8597   -2.0329    1.4994 H         1 <0>         0.1271
     31 H9          5.3928   -0.2987    2.1421 H         1 <0>         0.1013
     32 H10         4.5028   -1.3985    3.3253 H         1 <0>         0.1036
     33 H11         4.9763   -3.3913    1.8291 H         1 <0>         0.1054
     34 H12         5.8663   -2.2915    0.6459 H         1 <0>         0.0950
@<TRIPOS>BOND
     1    1    6 ar
     2    1    2 ar
     3    1   23 1
     4    2    3 ar
     5    2   24 1
     6    3   12 1
     7    3    4 ar
     8    4    5 ar
     9    4    8 1
    10    5    6 ar
    11    5   25 1
    12    6    7 1
    13    8    9 1
    14    8   13 1
    15    8   20 1
    16    9   10 am
    17    9   26 1
    18   10   11 2
    19   10   12 am
    20   12   27 1
    21   13   14 3
    22   14   15 1
    23   15   19 1
    24   15   16 2
    25   16   17 1
    26   17   18 2
    27   17   28 1
    28   18   19 1
    29   18   29 1
    30   20   22 1
    31   20   21 1
    32   20   30 1
    33   21   22 1
    34   21   31 1
    35   21   32 1
    36   22   33 1
    37   22   34 1
@<TRIPOS>MOLECULE
CHEMBL79526__1
   34    37     0     0     0
SMALL
USER_CHARGES

@<TRIPOS>ATOM
      1 C1         -0.0167    1.3794    0.0096 C.ar      1 <0>        -0.0592
      2 C2          1.1662    2.0932    0.0022 C.ar      1 <0>        -0.1450
      3 C3          2.3798    1.4195   -0.0131 C.ar      1 <0>         0.1862
      4 C4          2.3898    0.0286   -0.0207 C.ar      1 <0>        -0.1221
      5 C5          1.2116   -0.6809   -0.0136 C.ar      1 <0>        -0.0398
      6 C6          0.0021   -0.0041    0.0020 C.ar      1 <0>        -0.0624
      7 Cl1        -1.4895   -0.8923    0.0121 Cl        1 <0>        -0.0567
      8 C7          3.7286   -0.6723   -0.0372 C.3       1 <0>         0.3658
      9 N1          4.9281    0.1824   -0.0441 N.am      1 <0>        -0.7067
     10 C8          4.7807    1.5195   -0.0355 C.2       1 <0>         0.7137
     11 O1          5.7797    2.2126   -0.0417 O.2       1 <0>        -0.5655
     12 N2          3.5854    2.1230   -0.0213 N.am      1 <0>        -0.6598
     13 C9          3.7993   -1.5443    1.1466 C.1       1 <0>        -0.0978
     14 C10         3.8556   -2.2397    2.0907 C.1       1 <0>        -0.0701
     15 C11         3.9243   -3.0880    3.2424 C.2       1 <0>         0.1960
     16 N3          3.0231   -3.2884    4.1961 N.2       1 <0>        -0.4751
     17 C12         3.2561   -4.1117    5.1902 C.2       1 <0>         0.0244
     18 C13         4.4400   -4.7781    5.2554 C.2       1 <0>        -0.1874
     19 S1          5.2441   -4.1685    3.7788 S.3       1 <0>         0.0514
     20 C14         3.7784   -1.5653   -1.2786 C.3       1 <0>        -0.1716
     21 C15         3.6475   -3.0752   -1.0684 C.3       1 <0>        -0.1689
     22 C16         5.0002   -2.4703   -1.4493 C.3       1 <0>        -0.1663
     23 H1         -0.9606    1.9038    0.0260 H         1 <0>         0.1452
     24 H2          1.1467    3.1730    0.0078 H         1 <0>         0.1457
     25 H3          1.2287   -1.7608   -0.0199 H         1 <0>         0.1452
     26 H4          5.8133   -0.2140   -0.0544 H         1 <0>         0.4325
     27 H5          3.5560    3.0925   -0.0157 H         1 <0>         0.4291
     28 H6          2.5092   -4.2599    5.9560 H         1 <0>         0.1769
     29 H7          4.7944   -5.4836    5.9923 H         1 <0>         0.2064
     30 H8          3.3356   -1.1421   -2.1802 H         1 <0>         0.1269
     31 H9          3.5259   -3.4322   -0.0457 H         1 <0>         0.1009
     32 H10         3.1183   -3.6456   -1.8317 H         1 <0>         0.1063
     33 H11         5.3610   -2.6427   -2.4633 H         1 <0>         0.1065
     34 H12         5.7686   -2.4294   -0.6772 H         1 <0>         0.0955
@<TRIPOS>BOND
     1    1    6 ar
     2    1    2 ar
     3    1   23 1
     4    2    3 ar
     5    2   24 1
     6    3   12 1
     7    3    4 ar
     8    4    5 ar
     9    4    8 1
    10    5    6 ar
    11    5   25 1
    12    6    7 1
    13    8    9 1
    14    8   13 1
    15    8   20 1
    16    9   10 am
    17    9   26 1
    18   10   11 2
    19   10   12 am
    20   12   27 1
    21   13   14 3
    22   14   15 1
    23   15   19 1
    24   15   16 2
    25   16   17 1
    26   17   18 2
    27   17   28 1
    28   18   19 1
    29   18   29 1
    30   20   22 1
    31   20   21 1
    32   20   30 1
    33   21   22 1
    34   21   31 1
    35   21   32 1
    36   22   33 1
    37   22   34 1
@<TRIPOS>MOLECULE
CHEMBL135277
   49    51     0     0     0
SMALL
USER_CHARGES

@<TRIPOS>ATOM
      1 C1         -0.5540    0.7820   -0.2540 C.3       1 <0>        -0.1447
      2 C2         -0.0681   -0.6651   -0.3571 C.3       1 <0>        -0.0711
      3 C3          0.8506   -0.8033   -1.5437 C.2       1 <0>        -0.1431
      4 C4          0.3275   -1.0275   -2.8265 C.2       1 <0>         0.5392
      5 O1         -0.8776   -1.1121   -2.9912 O.2       1 <0>        -0.4776
      6 N1          1.1649   -1.1484   -3.8753 N.am      1 <0>        -0.6075
      7 H1          0.8048   -1.3034   -4.7625 H         1 <0>         0.4456
      8 C5          2.4960   -1.0555   -3.7030 C.2       1 <0>         0.5186
      9 S1          3.5341   -1.2128   -5.0552 S.2       1 <0>        -0.5045
     10 N2          3.0238   -0.8404   -2.4839 N.pl3     1 <0>        -0.4860
     11 C6          2.2063   -0.7062   -1.3866 C.2       1 <0>         0.0947
     12 S2          2.8984   -0.4179    0.2079 S.3       1 <0>         0.0765
     13 C7          3.6913   -1.9392    0.6099 C.ar      1 <0>        -0.1311
     14 C8          3.6154   -3.0162   -0.2644 C.ar      1 <0>        -0.1229
     15 C9          4.2379   -4.2070    0.0537 C.ar      1 <0>        -0.0955
     16 C10         4.9364   -4.3283    1.2412 C.ar      1 <0>        -0.1058
     17 C11         5.0137   -3.2583    2.1140 C.ar      1 <0>        -0.0970
     18 C12         4.3987   -2.0626    1.7992 C.ar      1 <0>        -0.0841
     19 C13         4.4770   -0.7437   -2.3259 C.3       1 <0>         0.2606
     20 O2          4.9268    0.5196   -2.8195 O.3       1 <0>        -0.3454
     21 C14         4.6386    1.6184   -1.9525 C.3       1 <0>         0.0549
     22 C15         5.0516    2.9258   -2.6315 C.3       1 <0>        -0.0774
     23 C16         4.7477    4.0845   -1.7171 C.ar      1 <0>        -0.0848
     24 C17         3.5147    4.7066   -1.7762 C.ar      1 <0>        -0.1146
     25 C18         3.2359    5.7695   -0.9375 C.ar      1 <0>        -0.1171
     26 C19         4.1900    6.2100   -0.0394 C.ar      1 <0>        -0.1198
     27 C20         5.4228    5.5873    0.0203 C.ar      1 <0>        -0.1172
     28 C21         5.7000    4.5217   -0.8155 C.ar      1 <0>        -0.1128
     29 H2          0.3023    1.4448   -0.1296 H         1 <0>         0.0552
     30 H3         -1.0920    1.0502   -1.1632 H         1 <0>         0.0594
     31 H4         -1.2185    0.8819    0.6043 H         1 <0>         0.0723
     32 H5          0.4699   -0.9334    0.5522 H         1 <0>         0.0973
     33 H6         -0.9244   -1.3280   -0.4815 H         1 <0>         0.0928
     34 H7          3.0697   -2.9223   -1.1917 H         1 <0>         0.1141
     35 H8          4.1789   -5.0448   -0.6253 H         1 <0>         0.1317
     36 H9          5.4224   -5.2608    1.4876 H         1 <0>         0.1325
     37 H10         5.5594   -3.3566    3.0408 H         1 <0>         0.1360
     38 H11         4.4637   -1.2259    2.4789 H         1 <0>         0.1341
     39 H12         4.7346   -0.8341   -1.2706 H         1 <0>         0.1033
     40 H13         4.9576   -1.5451   -2.8871 H         1 <0>         0.1496
     41 H14         3.5701    1.6418   -1.7385 H         1 <0>         0.0478
     42 H15         5.1932    1.5016   -1.0214 H         1 <0>         0.0644
     43 H16         6.1201    2.9023   -2.8455 H         1 <0>         0.0865
     44 H17         4.4970    3.0425   -3.5626 H         1 <0>         0.0815
     45 H18         2.7692    4.3625   -2.4778 H         1 <0>         0.1189
     46 H19         2.2728    6.2560   -0.9841 H         1 <0>         0.1227
     47 H20         3.9725    7.0409    0.6154 H         1 <0>         0.1227
     48 H21         6.1683    5.9317    0.7217 H         1 <0>         0.1237
     49 H22         6.6617    4.0328   -0.7663 H         1 <0>         0.1234
@<TRIPOS>BOND
     1    1    2 1
     2    1   29 1
     3    1   30 1
     4    1   31 1
     5    2    3 1
     6    2   32 1
     7    2   33 1
     8    3   11 2
     9    3    4 1
    10    4    5 2
    11    4    6 am
    12    6    7 1
    13    6    8 1
    14    8    9 2
    15    8   10 1
    16   10   11 1
    17   10   19 1
    18   11   12 1
    19   12   13 1
    20   13   18 ar
    21   13   14 ar
    22   14   15 ar
    23   14   34 1
    24   15   16 ar
    25   15   35 1
    26   16   17 ar
    27   16   36 1
    28   17   18 ar
    29   17   37 1
    30   18   38 1
    31   19   20 1
    32   19   39 1
    33   19   40 1
    34   20   21 1
    35   21   22 1
    36   21   41 1
    37   21   42 1
    38   22   23 1
    39   22   43 1
    40   22   44 1
    41   23   28 ar
    42   23   24 ar
    43   24   25 ar
    44   24   45 1
    45   25   26 ar
    46   25   46 1
    47   26   27 ar
    48   26   47 1
    49   27   28 ar
    50   27   48 1
    51   28   49 1
@<TRIPOS>MOLECULE
CHEMBL133035
   49    51     0     0     0
SMALL
USER_CHARGES

@<TRIPOS>ATOM
      1 C1         -0.1640    0.9399    0.8535 C.3       1 <0>        -0.1500
      2 C2         -0.3082   -0.5286    0.4487 C.3       1 <0>        -0.0403
      3 C3          0.1415   -1.4230    1.6057 C.3       1 <0>        -0.1499
      4 C4         -1.7497   -0.8197    0.1196 C.2       1 <0>        -0.1370
      5 C5         -2.7514   -0.6356    1.0851 C.2       1 <0>         0.5400
      6 O1         -2.4622   -0.2373    2.2006 O.2       1 <0>        -0.4730
      7 N1         -4.0348   -0.9013    0.7720 N.am      1 <0>        -0.6080
      8 H1         -4.7282   -0.7746    1.4384 H         1 <0>         0.4453
      9 C6         -4.3632   -1.3404   -0.4566 C.2       1 <0>         0.5175
     10 S1         -6.0027   -1.6688   -0.8242 S.2       1 <0>        -0.5021
     11 N2         -3.4225   -1.5250   -1.4010 N.pl3     1 <0>        -0.4862
     12 C7         -2.1013   -1.2618   -1.1266 C.2       1 <0>         0.0934
     13 S2         -0.8716   -1.4975   -2.3663 S.3       1 <0>         0.0723
     14 C8         -0.7937   -3.2468   -2.5623 C.ar      1 <0>        -0.1295
     15 C9         -1.5823   -4.0720   -1.7703 C.ar      1 <0>        -0.1223
     16 C10        -1.5188   -5.4425   -1.9265 C.ar      1 <0>        -0.0956
     17 C11        -0.6713   -5.9940   -2.8701 C.ar      1 <0>        -0.1057
     18 C12         0.1155   -5.1755   -3.6599 C.ar      1 <0>        -0.0969
     19 C13         0.0523   -3.8039   -3.5132 C.ar      1 <0>        -0.0841
     20 C14        -3.8091   -2.0041   -2.7304 C.3       1 <0>         0.2585
     21 O2         -4.4294   -0.9419   -3.4578 O.3       1 <0>        -0.3380
     22 C15        -3.5137    0.0405   -3.9460 C.3       1 <0>         0.0912
     23 C16        -4.2812    1.1675   -4.5879 C.ar      1 <0>        -0.0935
     24 C17        -4.5907    1.1142   -5.9341 C.ar      1 <0>        -0.0948
     25 C18        -5.2947    2.1480   -6.5228 C.ar      1 <0>        -0.1218
     26 C19        -5.6895    3.2348   -5.7653 C.ar      1 <0>        -0.1094
     27 C20        -5.3807    3.2877   -4.4189 C.ar      1 <0>        -0.1212
     28 C21        -4.6805    2.2519   -3.8292 C.ar      1 <0>        -0.0950
     29 H2          0.8787    1.1504    1.0916 H         1 <0>         0.0698
     30 H3         -0.4843    1.5771    0.0292 H         1 <0>         0.0531
     31 H4         -0.7835    1.1382    1.7281 H         1 <0>         0.0726
     32 H5          0.3114   -0.7269   -0.4259 H         1 <0>         0.1047
     33 H6          0.0387   -2.4692    1.3173 H         1 <0>         0.0521
     34 H7          1.1841   -1.2125    1.8438 H         1 <0>         0.0694
     35 H8         -0.4781   -1.2247    2.4803 H         1 <0>         0.0719
     36 H9         -2.2441   -3.6420   -1.0330 H         1 <0>         0.1140
     37 H10        -2.1313   -6.0846   -1.3109 H         1 <0>         0.1315
     38 H11        -0.6235   -7.0662   -2.9902 H         1 <0>         0.1324
     39 H12         0.7768   -5.6095   -4.3953 H         1 <0>         0.1360
     40 H13         0.6632   -3.1651   -4.1338 H         1 <0>         0.1344
     41 H14        -2.9225   -2.3423   -3.2667 H         1 <0>         0.1038
     42 H15        -4.5101   -2.8325   -2.6284 H         1 <0>         0.1500
     43 H16        -2.9221    0.4295   -3.1173 H         1 <0>         0.0539
     44 H17        -2.8518   -0.4143   -4.6830 H         1 <0>         0.0716
     45 H18        -4.2823    0.2651   -6.5259 H         1 <0>         0.1245
     46 H19        -5.5359    2.1068   -7.5747 H         1 <0>         0.1258
     47 H20        -6.2389    4.0428   -6.2254 H         1 <0>         0.1245
     48 H21        -5.6889    4.1369   -3.8271 H         1 <0>         0.1242
     49 H22        -4.4425    2.2914   -2.7765 H         1 <0>         0.1159
@<TRIPOS>BOND
     1    1    2 1
     2    1   29 1
     3    1   30 1
     4    1   31 1
     5    2    3 1
     6    2    4 1
     7    2   32 1
     8    3   33 1
     9    3   34 1
    10    3   35 1
    11    4   12 2
    12    4    5 1
    13    5    6 2
    14    5    7 am
    15    7    8 1
    16    7    9 1
    17    9   10 2
    18    9   11 1
    19   11   12 1
    20   11   20 1
    21   12   13 1
    22   13   14 1
    23   14   19 ar
    24   14   15 ar
    25   15   16 ar
    26   15   36 1
    27   16   17 ar
    28   16   37 1
    29   17   18 ar
    30   17   38 1
    31   18   19 ar
    32   18   39 1
    33   19   40 1
    34   20   21 1
    35   20   41 1
    36   20   42 1
    37   21   22 1
    38   22   23 1
    39   22   43 1
    40   22   44 1
    41   23   28 ar
    42   23   24 ar
    43   24   25 ar
    44   24   45 1
    45   25   26 ar
    46   25   46 1
    47   26   27 ar
    48   26   47 1
    49   27   28 ar
    50   27   48 1
    51   28   49 1
@<TRIPOS>MOLECULE
CHEMBL147099
   36    38     0     0     0
SMALL
USER_CHARGES

@<TRIPOS>ATOM
      1 C1         -0.0167    1.3781    0.0096 C.ar      1 <0>        -0.1175
      2 C2          1.1709    2.0855    0.0021 C.ar      1 <0>        -0.1175
      3 C3          2.3773    1.4107   -0.0130 C.ar      1 <0>        -0.1113
      4 C4          2.3960    0.0285   -0.0201 C.ar      1 <0>        -0.0863
      5 C5          1.2084   -0.6789   -0.0117 C.ar      1 <0>        -0.1113
      6 C6          0.0021   -0.0041    0.0020 C.ar      1 <0>        -0.1175
      7 C7          3.7112   -0.7071   -0.0376 C.3       1 <0>        -0.0924
      8 C8          4.1714   -0.9633    1.3989 C.3       1 <0>         0.1283
      9 N1          5.4498   -1.6784    1.3820 N.pl3     1 <0>        -0.6764
     10 C9          6.0502   -2.0132    2.5413 C.2       1 <0>         0.5218
     11 S1          5.3187   -1.6028    4.0337 S.2       1 <0>        -0.4978
     12 N2          7.2263   -2.6711    2.5257 N.pl3     1 <0>        -0.5796
     13 C10         7.8429   -3.0150    3.7164 C.2       1 <0>         0.3524
     14 N3          7.4395   -2.7949    4.9462 N.2       1 <0>        -0.4349
     15 C11         8.1498   -3.1903    6.0249 C.ar      1 <0>         0.0875
     16 C12         7.8310   -3.0168    7.3917 C.ar      1 <0>        -0.0534
     17 C13         8.6693   -3.4823    8.3707 C.ar      1 <0>        -0.1110
     18 C14         9.8534   -4.1358    8.0609 C.ar      1 <0>        -0.0954
     19 C15        10.1966   -4.3228    6.7345 C.ar      1 <0>        -0.0673
     20 C16         9.3629   -3.8604    5.7472 C.ar      1 <0>        -0.1401
     21 S2          9.3870   -3.8785    3.9708 S.3       1 <0>        -0.0054
     22 H1         -0.9591    1.9053    0.0259 H         1 <0>         0.1231
     23 H2          1.1563    3.1654    0.0076 H         1 <0>         0.1238
     24 H3          3.3051    1.9634   -0.0196 H         1 <0>         0.1225
     25 H4          1.2231   -1.7588   -0.0176 H         1 <0>         0.1225
     26 H5         -0.9258   -0.5567    0.0082 H         1 <0>         0.1238
     27 H6          3.5884   -1.6586   -0.5549 H         1 <0>         0.0811
     28 H7          4.4573   -0.1052   -0.5563 H         1 <0>         0.0812
     29 H8          4.2941   -0.0118    1.9163 H         1 <0>         0.0929
     30 H9          3.4252   -1.5652    1.9176 H         1 <0>         0.0929
     31 H10         5.8643   -1.9110    0.5363 H         1 <0>         0.3983
     32 H11         7.6408   -2.9037    1.6800 H         1 <0>         0.4192
     33 H12         6.9170   -2.5116    7.6670 H         1 <0>         0.1366
     34 H13         8.4024   -3.3368    9.4070 H         1 <0>         0.1351
     35 H14        10.5005   -4.4943    8.8477 H         1 <0>         0.1392
     36 H15        11.1148   -4.8299    6.4771 H         1 <0>         0.1330
@<TRIPOS>BOND
     1    1    6 ar
     2    1    2 ar
     3    1   22 1
     4    2    3 ar
     5    2   23 1
     6    3    4 ar
     7    3   24 1
     8    4    5 ar
     9    4    7 1
    10    5    6 ar
    11    5   25 1
    12    6   26 1
    13    7    8 1
    14    7   27 1
    15    7   28 1
    16    8    9 1
    17    8   29 1
    18    8   30 1
    19    9   10 1
    20    9   31 1
    21   10   11 2
    22   10   12 1
    23   12   13 1
    24   12   32 1
    25   13   21 1
    26   13   14 2
    27   14   15 1
    28   15   20 ar
    29   15   16 ar
    30   16   17 ar
    31   16   33 1
    32   17   18 ar
    33   17   34 1
    34   18   19 ar
    35   18   35 1
    36   19   20 ar
    37   19   36 1
    38   20   21 1
@<TRIPOS>MOLECULE
CHEMBL381888
   36    37     0     0     0
SMALL
USER_CHARGES

@<TRIPOS>ATOM
      1 C1         -0.0187    1.5258    0.0104 C.3       1 <0>        -0.1438
      2 C2          0.0021   -0.0041    0.0020 C.3       1 <0>        -0.1280
      3 C3         -1.4332   -0.5350    0.0202 C.3       1 <0>         0.1087
      4 N1         -2.0108   -0.3380    1.3511 N.am      1 <0>        -0.6122
      5 C4         -1.2577   -0.4639    2.4559 C.2       1 <0>         0.7102
      6 O1         -1.7893   -0.3969    3.5468 O.2       1 <0>        -0.5495
      7 N2          0.0690   -0.6624    2.3842 N.am      1 <0>        -0.6767
      8 C5          0.7313   -0.5048    1.2234 C.2       1 <0>         0.5249
      9 O2          1.9134   -0.7660    1.1594 O.2       1 <0>        -0.4946
     10 C6         -3.4301    0.0016    1.4793 C.3       1 <0>         0.1678
     11 C7         -3.5870    1.3450    2.2213 C.3       1 <0>        -0.1283
     12 C8         -4.8502    1.1503    3.0963 C.3       1 <0>        -0.0620
     13 H1         -5.7551    1.2902    2.5049 H         1 <0>         0.1027
     14 C9         -4.7204   -0.3214    3.5613 C.3       1 <0>         0.1166
     15 C10        -4.1507   -1.0579    2.3313 C.3       1 <0>        -0.1503
     16 N3         -6.0332   -0.8633    3.9207 N.2       1 <0>        -0.3840
     17 N4         -6.1144   -1.8945    4.3604 N.1       1 <0>         0.2996
     18 N5         -6.1938   -2.9037    4.7907 N.1       1 <0>        -0.1930
     19 C11        -4.8336    2.1044    4.2922 C.3       1 <0>         0.0841
     20 O3         -6.0611    1.9847    5.0141 O.3       1 <0>        -0.5617
     21 H2          1.0039    1.9031    0.0027 H         1 <0>         0.0706
     22 H3         -0.5459    1.8868   -0.8726 H         1 <0>         0.0807
     23 H4         -0.5289    1.8773    0.9072 H         1 <0>         0.0614
     24 H5          0.5103   -0.3565   -0.8955 H         1 <0>         0.1320
     25 H6         -2.0288    0.0028   -0.7174 H         1 <0>         0.1070
     26 H7         -1.4302   -1.5981   -0.2207 H         1 <0>         0.0796
     27 H8          0.5568   -0.9230    3.1811 H         1 <0>         0.4267
     28 H9         -3.8896    0.0631    0.4928 H         1 <0>         0.1111
     29 H10        -2.7158    1.5393    2.8469 H         1 <0>         0.0867
     30 H11        -3.7367    2.1579    1.5108 H         1 <0>         0.0845
     31 H12        -4.0323   -0.3962    4.4033 H         1 <0>         0.0946
     32 H13        -4.9605   -1.5100    1.7586 H         1 <0>         0.0809
     33 H14        -3.4444   -1.8248    2.6494 H         1 <0>         0.0799
     34 H15        -4.0004    1.8510    4.9477 H         1 <0>         0.0467
     35 H16        -4.7188    3.1289    3.9382 H         1 <0>         0.0495
     36 H17        -6.1205    2.5622    5.7874 H         1 <0>         0.3775
@<TRIPOS>BOND
     1    1    2 1
     2    1   21 1
     3    1   22 1
     4    1   23 1
     5    2    8 1
     6    2    3 1
     7    2   24 1
     8    3    4 1
     9    3   25 1
    10    3   26 1
    11    4    5 am
    12    4   10 1
    13    5    6 2
    14    5    7 am
    15    7    8 am
    16    7   27 1
    17    8    9 2
    18   10   15 1
    19   10   11 1
    20   10   28 1
    21   11   12 1
    22   11   29 1
    23   11   30 1
    24   12   13 1
    25   12   14 1
    26   12   19 1
    27   14   15 1
    28   14   16 1
    29   14   31 1
    30   15   32 1
    31   15   33 1
    32   16   17 2
    33   17   18 2
    34   19   20 1
    35   19   34 1
    36   19   35 1
    37   20   36 1
@<TRIPOS>MOLECULE
CHEMBL381888__1
   36    37     0     0     0
SMALL
USER_CHARGES

@<TRIPOS>ATOM
      1 C1         -0.0187    1.5258    0.0104 C.3       1 <0>        -0.1440
      2 C2          0.0021   -0.0041    0.0020 C.3       1 <0>        -0.1280
      3 C3         -1.4332   -0.5350    0.0202 C.3       1 <0>         0.1094
      4 N1         -2.0108   -0.3380    1.3511 N.am      1 <0>        -0.6093
      5 C4         -1.2577   -0.4639    2.4559 C.2       1 <0>         0.7090
      6 O1         -1.7893   -0.3969    3.5468 O.2       1 <0>        -0.5425
      7 N2          0.0690   -0.6624    2.3842 N.am      1 <0>        -0.6766
      8 C5          0.7313   -0.5048    1.2234 C.2       1 <0>         0.5249
      9 O2          1.9134   -0.7660    1.1594 O.2       1 <0>        -0.4950
     10 C6         -3.4301    0.0016    1.4793 C.3       1 <0>         0.1653
     11 C7         -3.6115    1.2990    2.3057 C.3       1 <0>        -0.1350
     12 C8         -5.0458    1.1944    2.8640 C.3       1 <0>        -0.0643
     13 H1         -5.7380    1.7352    2.2186 H         1 <0>         0.0928
     14 C9         -5.4023   -0.3023    2.8824 C.3       1 <0>         0.1163
     15 C10        -4.1722   -1.0551    2.3347 C.3       1 <0>        -0.1691
     16 N3         -5.6853   -0.7339    4.2535 N.2       1 <0>        -0.3749
     17 N4         -6.0466   -1.7800    4.4502 N.1       1 <0>         0.2985
     18 N5         -6.4001   -2.8037    4.6426 N.1       1 <0>        -0.1931
     19 C11        -5.0988    1.7644    4.2829 C.3       1 <0>         0.0985
     20 O3         -6.4513    1.7689    4.7442 O.3       1 <0>        -0.5661
     21 H2          1.0039    1.9031    0.0027 H         1 <0>         0.0708
     22 H3         -0.5459    1.8868   -0.8726 H         1 <0>         0.0805
     23 H4         -0.5289    1.8773    0.9072 H         1 <0>         0.0619
     24 H5          0.5103   -0.3565   -0.8955 H         1 <0>         0.1320
     25 H6         -2.0288    0.0028   -0.7174 H         1 <0>         0.1066
     26 H7         -1.4302   -1.5981   -0.2207 H         1 <0>         0.0794
     27 H8          0.5568   -0.9230    3.1811 H         1 <0>         0.4269
     28 H9         -3.8929    0.0979    0.4972 H         1 <0>         0.1117
     29 H10        -2.8873    1.3374    3.1194 H         1 <0>         0.0972
     30 H11        -3.5143    2.1758    1.6655 H         1 <0>         0.0789
     31 H12        -6.2675   -0.4880    2.2460 H         1 <0>         0.0814
     32 H13        -4.4842   -1.8963    1.7157 H         1 <0>         0.0729
     33 H14        -3.5385   -1.3968    3.1531 H         1 <0>         0.1065
     34 H15        -4.4911    1.1477    4.9451 H         1 <0>         0.0602
     35 H16        -4.7126    2.7837    4.2796 H         1 <0>         0.0393
     36 H17        -6.5604    2.1182    5.6393 H         1 <0>         0.3769
@<TRIPOS>BOND
     1    1    2 1
     2    1   21 1
     3    1   22 1
     4    1   23 1
     5    2    8 1
     6    2    3 1
     7    2   24 1
     8    3    4 1
     9    3   25 1
    10    3   26 1
    11    4    5 am
    12    4   10 1
    13    5    6 2
    14    5    7 am
    15    7    8 am
    16    7   27 1
    17    8    9 2
    18   10   15 1
    19   10   11 1
    20   10   28 1
    21   11   12 1
    22   11   29 1
    23   11   30 1
    24   12   13 1
    25   12   14 1
    26   12   19 1
    27   14   15 1
    28   14   16 1
    29   14   31 1
    30   15   32 1
    31   15   33 1
    32   16   17 2
    33   17   18 2
    34   19   20 1
    35   19   34 1
    36   19   35 1
    37   20   36 1
@<TRIPOS>MOLECULE
CHEMBL381888__2
   36    37     0     0     0
SMALL
USER_CHARGES

@<TRIPOS>ATOM
      1 C1         -0.0187    1.5258    0.0104 C.3       1 <0>        -0.1444
      2 C2          0.0021   -0.0041    0.0020 C.3       1 <0>        -0.1282
      3 C3         -1.4332   -0.5350    0.0202 C.3       1 <0>         0.1095
      4 N1         -2.0108   -0.3380    1.3511 N.am      1 <0>        -0.6108
      5 C4         -1.2577   -0.4639    2.4559 C.2       1 <0>         0.7082
      6 O1         -1.7893   -0.3969    3.5468 O.2       1 <0>        -0.5403
      7 N2          0.0690   -0.6624    2.3842 N.am      1 <0>        -0.6764
      8 C5          0.7313   -0.5048    1.2234 C.2       1 <0>         0.5250
      9 O2          1.9134   -0.7660    1.1594 O.2       1 <0>        -0.4949
     10 C6         -3.4301    0.0016    1.4793 C.3       1 <0>         0.1656
     11 C7         -4.1511   -1.0227    2.3797 C.3       1 <0>        -0.1296
     12 C8         -5.1731   -0.2314    3.2147 C.3       1 <0>        -0.0642
     13 H1         -4.9507   -0.3384    4.2763 H         1 <0>         0.1061
     14 C9         -5.0374    1.2461    2.7925 C.3       1 <0>         0.1182
     15 C10        -3.5999    1.3486    2.2249 C.3       1 <0>        -0.1640
     16 N3         -5.1947    2.1272    3.9523 N.2       1 <0>        -0.3799
     17 N4         -5.2087    3.2425    3.8131 N.1       1 <0>         0.2992
     18 N5         -5.2224    4.3339    3.6768 N.1       1 <0>        -0.1903
     19 C11        -6.5888   -0.7330    2.9230 C.3       1 <0>         0.0799
     20 O3         -7.5156   -0.0727    3.7874 O.3       1 <0>        -0.5652
     21 H2          1.0039    1.9031    0.0027 H         1 <0>         0.0713
     22 H3         -0.5459    1.8868   -0.8726 H         1 <0>         0.0800
     23 H4         -0.5289    1.8773    0.9072 H         1 <0>         0.0602
     24 H5          0.5103   -0.3565   -0.8955 H         1 <0>         0.1323
     25 H6         -2.0288    0.0028   -0.7174 H         1 <0>         0.1051
     26 H7         -1.4302   -1.5981   -0.2207 H         1 <0>         0.0813
     27 H8          0.5568   -0.9230    3.1811 H         1 <0>         0.4272
     28 H9         -3.9007    0.0472    0.4972 H         1 <0>         0.1093
     29 H10        -4.6638   -1.7635    1.7661 H         1 <0>         0.0758
     30 H11        -3.4327   -1.5137    3.0362 H         1 <0>         0.1004
     31 H12        -5.7697    1.4919    2.0234 H         1 <0>         0.0830
     32 H13        -2.8718    1.4384    3.0310 H         1 <0>         0.1017
     33 H14        -3.5167    2.1864    1.5327 H         1 <0>         0.0726
     34 H15        -6.8437   -0.5185    1.8852 H         1 <0>         0.0451
     35 H16        -6.6356   -1.8085    3.0938 H         1 <0>         0.0527
     36 H17        -8.4351   -0.3424    3.6578 H         1 <0>         0.3788
@<TRIPOS>BOND
     1    1    2 1
     2    1   21 1
     3    1   22 1
     4    1   23 1
     5    2    8 1
     6    2    3 1
     7    2   24 1
     8    3    4 1
     9    3   25 1
    10    3   26 1
    11    4    5 am
    12    4   10 1
    13    5    6 2
    14    5    7 am
    15    7    8 am
    16    7   27 1
    17    8    9 2
    18   10   15 1
    19   10   11 1
    20   10   28 1
    21   11   12 1
    22   11   29 1
    23   11   30 1
    24   12   13 1
    25   12   14 1
    26   12   19 1
    27   14   15 1
    28   14   16 1
    29   14   31 1
    30   15   32 1
    31   15   33 1
    32   16   17 2
    33   17   18 2
    34   19   20 1
    35   19   34 1
    36   19   35 1
    37   20   36 1
@<TRIPOS>MOLECULE
CHEMBL381888__3
   36    37     0     0     0
SMALL
USER_CHARGES

@<TRIPOS>ATOM
      1 C1         -0.8789   -2.9644    2.3809 C.3       1 <0>        -0.1456
      2 C2         -0.1705   -1.6089    2.3418 C.3       1 <0>        -0.1268
      3 C3         -1.1935   -0.4909    2.5562 C.3       1 <0>         0.0995
      4 N1         -2.0108   -0.3380    1.3511 N.am      1 <0>        -0.6084
      5 C4         -1.4778   -0.5051    0.1299 C.2       1 <0>         0.7111
      6 O1         -2.1561   -0.2694   -0.8506 O.2       1 <0>        -0.5528
      7 N2         -0.2126   -0.9262   -0.0340 N.am      1 <0>        -0.6755
      8 C5          0.4909   -1.4246    0.9991 C.2       1 <0>         0.5256
      9 O2          1.6562   -1.7245    0.8508 O.2       1 <0>        -0.4949
     10 C6         -3.4301    0.0016    1.4793 C.3       1 <0>         0.1554
     11 C7         -4.1774   -1.1236    2.2245 C.3       1 <0>        -0.1287
     12 C8         -4.2087   -0.6477    3.6981 C.3       1 <0>        -0.0699
     13 H1         -3.2590   -0.8552    4.1913 H         1 <0>         0.1014
     14 C9         -4.4334    0.8786    3.5597 C.3       1 <0>         0.1071
     15 C10        -3.5928    1.2746    2.3283 C.3       1 <0>        -0.1547
     16 N3         -5.8505    1.1693    3.3282 N.2       1 <0>        -0.3943
     17 N4         -6.2063    2.2347    3.2879 N.1       1 <0>         0.3002
     18 N5         -6.5546    3.2773    3.2484 N.1       1 <0>        -0.1743
     19 C11        -5.3652   -1.3036    4.4553 C.3       1 <0>         0.0832
     20 O3         -5.2994   -0.9378    5.8351 O.3       1 <0>        -0.5763
     21 H2         -0.1505   -3.7597    2.2230 H         1 <0>         0.0718
     22 H3         -1.3567   -3.0968    3.3517 H         1 <0>         0.0808
     23 H4         -1.6343   -3.0024    1.5960 H         1 <0>         0.0623
     24 H5          0.5836   -1.5692    3.1278 H         1 <0>         0.1322
     25 H6         -1.8351   -0.7428    3.4006 H         1 <0>         0.1093
     26 H7         -0.6721    0.4438    2.7625 H         1 <0>         0.0790
     27 H8          0.1997   -0.8704   -0.9103 H         1 <0>         0.4273
     28 H9         -3.8683    0.1522    0.4927 H         1 <0>         0.1179
     29 H10        -5.1904   -1.2306    1.8366 H         1 <0>         0.0944
     30 H11        -3.6337   -2.0644    2.1389 H         1 <0>         0.0838
     31 H12        -4.0765    1.3988    4.4486 H         1 <0>         0.0905
     32 H13        -2.6158    1.6397    2.6449 H         1 <0>         0.0930
     33 H14        -4.1108    2.0427    1.7540 H         1 <0>         0.0779
     34 H15        -6.3125   -0.9663    4.0347 H         1 <0>         0.0675
     35 H16        -5.2919   -2.3872    4.3628 H         1 <0>         0.0482
     36 H17        -6.0039   -1.3187    6.3770 H         1 <0>         0.3829
@<TRIPOS>BOND
     1    1    2 1
     2    1   21 1
     3    1   22 1
     4    1   23 1
     5    2    8 1
     6    2    3 1
     7    2   24 1
     8    3    4 1
     9    3   25 1
    10    3   26 1
    11    4    5 am
    12    4   10 1
    13    5    6 2
    14    5    7 am
    15    7    8 am
    16    7   27 1
    17    8    9 2
    18   10   15 1
    19   10   11 1
    20   10   28 1
    21   11   12 1
    22   11   29 1
    23   11   30 1
    24   12   13 1
    25   12   14 1
    26   12   19 1
    27   14   15 1
    28   14   16 1
    29   14   31 1
    30   15   32 1
    31   15   33 1
    32   16   17 2
    33   17   18 2
    34   19   20 1
    35   19   34 1
    36   19   35 1
    37   20   36 1
@<TRIPOS>MOLECULE
CHEMBL381888__4
   36    37     0     0     0
SMALL
USER_CHARGES

@<TRIPOS>ATOM
      1 C1         -0.0187    1.5258    0.0104 C.3       1 <0>        -0.1359
      2 C2          0.0021   -0.0041    0.0020 C.3       1 <0>        -0.1274
      3 C3          0.7246   -0.4988   -1.2531 C.3       1 <0>         0.1100
      4 N1          1.0277   -1.9243   -1.1133 N.am      1 <0>        -0.6147
      5 C4          1.3652   -2.4446    0.0779 C.2       1 <0>         0.7098
      6 O1          1.7113   -3.6079    0.1403 O.2       1 <0>        -0.5492
      7 N2          1.3297   -1.7099    1.2020 N.am      1 <0>        -0.6778
      8 C5          0.7313   -0.5048    1.2234 C.2       1 <0>         0.5217
      9 O2          0.7790    0.1783    2.2238 O.2       1 <0>        -0.4912
     10 C6          0.9614   -2.7955   -2.2892 C.3       1 <0>         0.1672
     11 C7         -0.0559   -3.9302   -2.0496 C.3       1 <0>        -0.1285
     12 C8          0.5823   -5.1636   -2.7356 C.3       1 <0>        -0.0620
     13 H1          0.4093   -5.1398   -3.8115 H         1 <0>         0.1028
     14 C9          2.0883   -4.9903   -2.4178 C.3       1 <0>         0.1165
     15 C10         2.3247   -3.4696   -2.5233 C.3       1 <0>        -0.1503
     16 N3          2.9054   -5.7057   -3.4011 N.2       1 <0>        -0.3840
     17 N4          4.0210   -5.7569   -3.2741 N.1       1 <0>         0.2996
     18 N5          5.1128   -5.8070   -3.1499 N.1       1 <0>        -0.1929
     19 C11         0.0420   -6.4607   -2.1302 C.3       1 <0>         0.0841
     20 O3          0.5581   -7.5771   -2.8578 O.3       1 <0>        -0.5617
     21 H2          1.0039    1.9031    0.0027 H         1 <0>         0.0653
     22 H3         -0.5459    1.8868   -0.8726 H         1 <0>         0.0756
     23 H4         -0.5289    1.8773    0.9072 H         1 <0>         0.0775
     24 H5         -1.0202   -0.3822    0.0076 H         1 <0>         0.1206
     25 H6          0.0861   -0.3469   -2.1234 H         1 <0>         0.1063
     26 H7          1.6523    0.0589   -1.3817 H         1 <0>         0.0797
     27 H8          1.7413   -2.0534    2.0104 H         1 <0>         0.4268
     28 H9          0.6757   -2.2161   -3.1671 H         1 <0>         0.1112
     29 H10        -0.1821   -4.1102   -0.9820 H         1 <0>         0.0868
     30 H11        -1.0127   -3.6887   -2.5125 H         1 <0>         0.0847
     31 H12         2.3083   -5.3416   -1.4097 H         1 <0>         0.0947
     32 H13         2.7002   -3.2180   -3.5152 H         1 <0>         0.0811
     33 H14         3.0356   -3.1485   -1.7620 H         1 <0>         0.0799
     34 H15         0.3521   -6.5318   -1.0876 H         1 <0>         0.0468
     35 H16        -1.0465   -6.4621   -2.1864 H         1 <0>         0.0496
     36 H17         0.2564   -8.4347   -2.5283 H         1 <0>         0.3775
@<TRIPOS>BOND
     1    1    2 1
     2    1   21 1
     3    1   22 1
     4    1   23 1
     5    2    8 1
     6    2    3 1
     7    2   24 1
     8    3    4 1
     9    3   25 1
    10    3   26 1
    11    4    5 am
    12    4   10 1
    13    5    6 2
    14    5    7 am
    15    7    8 am
    16    7   27 1
    17    8    9 2
    18   10   15 1
    19   10   11 1
    20   10   28 1
    21   11   12 1
    22   11   29 1
    23   11   30 1
    24   12   13 1
    25   12   14 1
    26   12   19 1
    27   14   15 1
    28   14   16 1
    29   14   31 1
    30   15   32 1
    31   15   33 1
    32   16   17 2
    33   17   18 2
    34   19   20 1
    35   19   34 1
    36   19   35 1
    37   20   36 1
@<TRIPOS>MOLECULE
CHEMBL381888__5
   36    37     0     0     0
SMALL
USER_CHARGES

@<TRIPOS>ATOM
      1 C1         -0.0187    1.5258    0.0104 C.3       1 <0>        -0.1357
      2 C2          0.0021   -0.0041    0.0020 C.3       1 <0>        -0.1276
      3 C3          0.7246   -0.4988   -1.2531 C.3       1 <0>         0.1107
      4 N1          1.0277   -1.9243   -1.1133 N.am      1 <0>        -0.6119
      5 C4          1.3652   -2.4446    0.0779 C.2       1 <0>         0.7086
      6 O1          1.7113   -3.6079    0.1403 O.2       1 <0>        -0.5422
      7 N2          1.3297   -1.7099    1.2020 N.am      1 <0>        -0.6776
      8 C5          0.7313   -0.5048    1.2234 C.2       1 <0>         0.5217
      9 O2          0.7790    0.1783    2.2238 O.2       1 <0>        -0.4916
     10 C6          0.9614   -2.7955   -2.2892 C.3       1 <0>         0.1647
     11 C7          0.0166   -3.9953   -2.0309 C.3       1 <0>        -0.1352
     12 C8          0.5003   -5.0772   -3.0185 C.3       1 <0>        -0.0643
     13 H1         -0.0985   -5.0465   -3.9287 H         1 <0>         0.0929
     14 C9          1.9689   -4.7516   -3.3424 C.3       1 <0>         0.1163
     15 C10         2.3263   -3.4832   -2.5405 C.3       1 <0>        -0.1690
     16 N3          2.8313   -5.8632   -2.9340 N.2       1 <0>        -0.3749
     17 N4          3.9300   -5.8382   -3.1698 N.1       1 <0>         0.2986
     18 N5          5.0052   -5.8137   -3.4006 N.1       1 <0>        -0.1931
     19 C11         0.3994   -6.4601   -2.3716 C.3       1 <0>         0.0984
     20 O3          0.7389   -7.4615   -3.3328 O.3       1 <0>        -0.5660
     21 H2          1.0039    1.9031    0.0027 H         1 <0>         0.0652
     22 H3         -0.5459    1.8868   -0.8726 H         1 <0>         0.0754
     23 H4         -0.5289    1.8773    0.9072 H         1 <0>         0.0776
     24 H5         -1.0202   -0.3822    0.0076 H         1 <0>         0.1207
     25 H6          0.0861   -0.3469   -2.1234 H         1 <0>         0.1059
     26 H7          1.6523    0.0589   -1.3817 H         1 <0>         0.0795
     27 H8          1.7413   -2.0534    2.0104 H         1 <0>         0.4270
     28 H9          0.6448   -2.2329   -3.1675 H         1 <0>         0.1119
     29 H10         0.1160   -4.3449   -1.0033 H         1 <0>         0.0973
     30 H11        -1.0165   -3.7198   -2.2429 H         1 <0>         0.0790
     31 H12         2.0828   -4.5629   -4.4099 H         1 <0>         0.0816
     32 H13         2.9789   -2.8340   -3.1243 H         1 <0>         0.0730
     33 H14         2.7988   -3.7501   -1.5952 H         1 <0>         0.1065
     34 H15         1.0876   -6.5178   -1.5283 H         1 <0>         0.0602
     35 H16        -0.6196   -6.6237   -2.0209 H         1 <0>         0.0394
     36 H17         0.6963   -8.3651   -2.9911 H         1 <0>         0.3769
@<TRIPOS>BOND
     1    1    2 1
     2    1   21 1
     3    1   22 1
     4    1   23 1
     5    2    8 1
     6    2    3 1
     7    2   24 1
     8    3    4 1
     9    3   25 1
    10    3   26 1
    11    4    5 am
    12    4   10 1
    13    5    6 2
    14    5    7 am
    15    7    8 am
    16    7   27 1
    17    8    9 2
    18   10   15 1
    19   10   11 1
    20   10   28 1
    21   11   12 1
    22   11   29 1
    23   11   30 1
    24   12   13 1
    25   12   14 1
    26   12   19 1
    27   14   15 1
    28   14   16 1
    29   14   31 1
    30   15   32 1
    31   15   33 1
    32   16   17 2
    33   17   18 2
    34   19   20 1
    35   19   34 1
    36   19   35 1
    37   20   36 1
@<TRIPOS>MOLECULE
CHEMBL381888__6
   36    37     0     0     0
SMALL
USER_CHARGES

@<TRIPOS>ATOM
      1 C1         -0.0187    1.5258    0.0104 C.3       1 <0>        -0.1354
      2 C2          0.0021   -0.0041    0.0020 C.3       1 <0>        -0.1285
      3 C3          0.7246   -0.4988   -1.2531 C.3       1 <0>         0.1109
      4 N1          1.0277   -1.9243   -1.1133 N.am      1 <0>        -0.6133
      5 C4          1.3652   -2.4446    0.0779 C.2       1 <0>         0.7077
      6 O1          1.7113   -3.6079    0.1403 O.2       1 <0>        -0.5400
      7 N2          1.3297   -1.7099    1.2020 N.am      1 <0>        -0.6775
      8 C5          0.7313   -0.5048    1.2234 C.2       1 <0>         0.5219
      9 O2          0.7790    0.1783    2.2238 O.2       1 <0>        -0.4916
     10 C6          0.9614   -2.7955   -2.2892 C.3       1 <0>         0.1651
     11 C7          2.3062   -3.5214   -2.4998 C.3       1 <0>        -0.1296
     12 C8          1.9676   -4.9435   -2.9803 C.3       1 <0>        -0.0643
     13 H1          2.3546   -5.6782   -2.2743 H         1 <0>         0.1063
     14 C9          0.4288   -5.0321   -3.0449 C.3       1 <0>         0.1181
     15 C10        -0.0562   -3.9403   -2.0591 C.3       1 <0>        -0.1644
     16 N3         -0.0273   -6.3546   -2.6101 N.2       1 <0>        -0.3799
     17 N4         -1.1171   -6.6224   -2.6742 N.1       1 <0>         0.2991
     18 N5         -2.1836   -6.8844   -2.7368 N.1       1 <0>        -0.1901
     19 C11         2.5661   -5.1844   -4.3676 C.3       1 <0>         0.0799
     20 O3          2.3452   -6.5428   -4.7523 O.3       1 <0>        -0.5651
     21 H2          1.0039    1.9031    0.0027 H         1 <0>         0.0658
     22 H3         -0.5459    1.8868   -0.8726 H         1 <0>         0.0749
     23 H4         -0.5289    1.8773    0.9072 H         1 <0>         0.0775
     24 H5         -1.0202   -0.3822    0.0076 H         1 <0>         0.1192
     25 H6          0.0861   -0.3469   -2.1234 H         1 <0>         0.1043
     26 H7          1.6523    0.0589   -1.3817 H         1 <0>         0.0813
     27 H8          1.7413   -2.0534    2.0104 H         1 <0>         0.4273
     28 H9          0.6937   -2.2194   -3.1750 H         1 <0>         0.1095
     29 H10         2.8962   -3.0026   -3.2554 H         1 <0>         0.0759
     30 H11         2.8576   -3.5660   -1.5606 H         1 <0>         0.1004
     31 H12         0.0764   -4.8186   -4.0540 H         1 <0>         0.0832
     32 H13        -0.0080   -4.2991   -1.0310 H         1 <0>         0.1018
     33 H14        -1.0662   -3.6153   -2.3090 H         1 <0>         0.0726
     34 H15         2.0900   -4.5204   -5.0891 H         1 <0>         0.0451
     35 H16         3.6372   -4.9838   -4.3410 H         1 <0>         0.0528
     36 H17         2.6993   -6.7673   -5.6237 H         1 <0>         0.3789
@<TRIPOS>BOND
     1    1    2 1
     2    1   21 1
     3    1   22 1
     4    1   23 1
     5    2    8 1
     6    2    3 1
     7    2   24 1
     8    3    4 1
     9    3   25 1
    10    3   26 1
    11    4    5 am
    12    4   10 1
    13    5    6 2
    14    5    7 am
    15    7    8 am
    16    7   27 1
    17    8    9 2
    18   10   15 1
    19   10   11 1
    20   10   28 1
    21   11   12 1
    22   11   29 1
    23   11   30 1
    24   12   13 1
    25   12   14 1
    26   12   19 1
    27   14   15 1
    28   14   16 1
    29   14   31 1
    30   15   32 1
    31   15   33 1
    32   16   17 2
    33   17   18 2
    34   19   20 1
    35   19   34 1
    36   19   35 1
    37   20   36 1
@<TRIPOS>MOLECULE
CHEMBL381888__7
   36    37     0     0     0
SMALL
USER_CHARGES

@<TRIPOS>ATOM
      1 C1          2.3627   -1.9068    2.4192 C.3       1 <0>        -0.1362
      2 C2          2.2441   -1.4661    0.9588 C.3       1 <0>        -0.1266
      3 C3          1.4111   -2.4885    0.1822 C.3       1 <0>         0.1011
      4 N1          1.0277   -1.9243   -1.1133 N.am      1 <0>        -0.6109
      5 C4          0.7364   -0.6194   -1.2388 C.2       1 <0>         0.7107
      6 O1          0.3217   -0.2040   -2.3031 O.2       1 <0>        -0.5527
      7 N2          0.8919    0.2378   -0.2162 N.am      1 <0>        -0.6766
      8 C5          1.5659   -0.1208    0.8919 C.2       1 <0>         0.5224
      9 O2          1.6272    0.6369    1.8363 O.2       1 <0>        -0.4915
     10 C6          0.9614   -2.7955   -2.2892 C.3       1 <0>         0.1549
     11 C7          2.3584   -3.3719   -2.5993 C.3       1 <0>        -0.1276
     12 C8          2.3592   -4.7581   -1.9082 C.3       1 <0>        -0.0703
     13 H1          2.5595   -4.6578   -0.8415 H         1 <0>         0.1015
     14 C9          0.9147   -5.2617   -2.1506 C.3       1 <0>         0.1072
     15 C10         0.0435   -3.9971   -2.0040 C.3       1 <0>        -0.1548
     16 N3          0.7857   -5.8197   -3.4991 N.2       1 <0>        -0.3943
     17 N4         -0.1756   -6.3088   -3.8153 N.1       1 <0>         0.3001
     18 N5         -1.1164   -6.7875   -4.1248 N.1       1 <0>        -0.1742
     19 C11         3.3799   -5.6903   -2.5641 C.3       1 <0>         0.0831
     20 O3          3.4415   -6.9177   -1.8350 O.3       1 <0>        -0.5763
     21 H2          1.3679   -1.9797    2.8586 H         1 <0>         0.0653
     22 H3          2.8530   -2.8792    2.4666 H         1 <0>         0.0756
     23 H4          2.9517   -1.1755    2.9727 H         1 <0>         0.0780
     24 H5          3.2385   -1.3950    0.5180 H         1 <0>         0.1206
     25 H6          1.9997   -3.3923    0.0249 H         1 <0>         0.1086
     26 H7          0.5144   -2.7337    0.7513 H         1 <0>         0.0791
     27 H8          0.5129    1.1286   -0.2776 H         1 <0>         0.4273
     28 H9          0.5886   -2.2362   -3.1473 H         1 <0>         0.1182
     29 H10         2.4955   -3.4818   -3.6750 H         1 <0>         0.0948
     30 H11         3.1360   -2.7350   -2.1777 H         1 <0>         0.0827
     31 H12         0.6388   -6.0040   -1.4016 H         1 <0>         0.0907
     32 H13        -0.3526   -3.9320   -0.9906 H         1 <0>         0.0930
     33 H14        -0.7743   -4.0215   -2.7242 H         1 <0>         0.0781
     34 H15         3.0790   -5.8929   -3.5920 H         1 <0>         0.0676
     35 H16         4.3610   -5.2154   -2.5597 H         1 <0>         0.0482
     36 H17         4.0700   -7.5581   -2.1953 H         1 <0>         0.3829
@<TRIPOS>BOND
     1    1    2 1
     2    1   21 1
     3    1   22 1
     4    1   23 1
     5    2    8 1
     6    2    3 1
     7    2   24 1
     8    3    4 1
     9    3   25 1
    10    3   26 1
    11    4    5 am
    12    4   10 1
    13    5    6 2
    14    5    7 am
    15    7    8 am
    16    7   27 1
    17    8    9 2
    18   10   15 1
    19   10   11 1
    20   10   28 1
    21   11   12 1
    22   11   29 1
    23   11   30 1
    24   12   13 1
    25   12   14 1
    26   12   19 1
    27   14   15 1
    28   14   16 1
    29   14   31 1
    30   15   32 1
    31   15   33 1
    32   16   17 2
    33   17   18 2
    34   19   20 1
    35   19   34 1
    36   19   35 1
    37   20   36 1
@<TRIPOS>MOLECULE
CHEMBL54893
   40    41     0     0     0
SMALL
USER_CHARGES

@<TRIPOS>ATOM
      1 C1         -1.1537    1.5069    3.3541 C.3       1 <0>        -0.0828
      2 C2         -0.8029    0.3447    2.4612 C.2       1 <0>         0.1296
      3 C3         -1.6715   -0.3363    1.6588 C.2       1 <0>        -0.2357
      4 C4         -0.8665   -1.3701    0.9917 C.2       1 <0>        -0.1936
      5 C5          0.3857   -1.2146    1.4483 C.2       1 <0>        -0.0231
      6 O1          0.4137   -0.1912    2.3161 O.3       1 <0>        -0.1693
      7 C6         -3.1135   -0.0878    1.4953 C.2       1 <0>         0.4099
      8 S1         -3.8690    1.1754    2.3697 S.2       1 <0>        -0.5367
      9 N1         -3.8387   -0.8547    0.6572 N.pl3     1 <0>        -0.5926
     10 C7         -5.2212   -0.6685    0.5587 C.ar      1 <0>         0.1445
     11 C8         -5.7462    0.6155    0.4801 C.ar      1 <0>        -0.0933
     12 C9         -7.1117    0.7996    0.3827 C.ar      1 <0>        -0.0648
     13 C10        -7.9595   -0.2928    0.3632 C.ar      1 <0>        -0.0582
     14 C11        -7.4400   -1.5781    0.4414 C.ar      1 <0>         0.1463
     15 C12        -6.0700   -1.7664    0.5335 C.ar      1 <0>        -0.2005
     16 O2         -8.2742   -2.6511    0.4226 O.3       1 <0>        -0.2935
     17 C13        -7.6706   -3.9437    0.5067 C.3       1 <0>         0.0894
     18 C14        -8.7429   -5.0020    0.4715 C.2       1 <0>        -0.1755
     19 C15        -8.6891   -6.0167    1.2983 C.2       1 <0>        -0.1034
     20 C16        -7.4755   -6.2153    2.1694 C.3       1 <0>        -0.1303
     21 C17        -9.8408   -6.9853    1.3784 C.3       1 <0>        -0.1209
     22 Cl1        -9.6751   -0.0569    0.2413 Cl        1 <0>        -0.0494
     23 H1         -0.2581    1.8509    3.8714 H         1 <0>         0.0749
     24 H2         -1.5593    2.3191    2.7507 H         1 <0>         0.1120
     25 H3         -1.8974    1.1915    4.0858 H         1 <0>         0.1116
     26 H4         -1.2124   -2.1046    0.2795 H         1 <0>         0.1573
     27 H5          1.2361   -1.8148    1.1604 H         1 <0>         0.2134
     28 H6         -3.4017   -1.5358    0.1224 H         1 <0>         0.4135
     29 H7         -5.0861    1.4702    0.4955 H         1 <0>         0.1581
     30 H8         -7.5180    1.7984    0.3221 H         1 <0>         0.1486
     31 H9         -5.6639   -2.7656    0.5899 H         1 <0>         0.1382
     32 H10        -6.9937   -4.0841   -0.3361 H         1 <0>         0.0687
     33 H11        -7.1116   -4.0237    1.4390 H         1 <0>         0.0715
     34 H12        -9.5557   -4.9240   -0.2354 H         1 <0>         0.1225
     35 H13        -7.6124   -5.6824    3.1103 H         1 <0>         0.0728
     36 H14        -7.3422   -7.2784    2.3699 H         1 <0>         0.0706
     37 H15        -6.5939   -5.8288    1.6579 H         1 <0>         0.0629
     38 H16        -9.6859   -7.7938    0.6640 H         1 <0>         0.0703
     39 H17        -9.8998   -7.3971    2.3859 H         1 <0>         0.0692
     40 H18       -10.7696   -6.4656    1.1433 H         1 <0>         0.0677
@<TRIPOS>BOND
     1    1    2 1
     2    1   23 1
     3    1   24 1
     4    1   25 1
     5    2    6 1
     6    2    3 2
     7    3    4 1
     8    3    7 1
     9    4    5 2
    10    4   26 1
    11    5    6 1
    12    5   27 1
    13    7    8 2
    14    7    9 1
    15    9   10 1
    16    9   28 1
    17   10   15 ar
    18   10   11 ar
    19   11   12 ar
    20   11   29 1
    21   12   13 ar
    22   12   30 1
    23   13   14 ar
    24   13   22 1
    25   14   15 ar
    26   14   16 1
    27   15   31 1
    28   16   17 1
    29   17   18 1
    30   17   32 1
    31   17   33 1
    32   18   19 2
    33   18   34 1
    34   19   20 1
    35   19   21 1
    36   20   35 1
    37   20   36 1
    38   20   37 1
    39   21   38 1
    40   21   39 1
    41   21   40 1
@<TRIPOS>MOLECULE
CHEMBL418833
   44    47     0     0     0
SMALL
USER_CHARGES

@<TRIPOS>ATOM
      1 C1          0.0526    1.4988   -0.0733 C.ar      1 <0>        -0.0649
      2 C2          1.2533    2.1749   -0.1507 C.ar      1 <0>        -0.1275
      3 C3          2.4495    1.4705   -0.1429 C.ar      1 <0>         0.1016
      4 C4          2.4366    0.0703   -0.0559 C.ar      1 <0>         0.0823
      5 C5          1.2087   -0.6016    0.0229 C.ar      1 <0>         0.1435
      6 C6          0.0311    0.1157    0.0129 C.ar      1 <0>        -0.1429
      7 F1          1.1792   -1.9496    0.1067 F         1 <0>        -0.1155
      8 N1          3.5972   -0.6378   -0.0477 N.2       1 <0>        -0.5409
      9 C7          4.7631   -0.0393   -0.1202 C.2       1 <0>         0.4185
     10 C8          4.8325    1.4175   -0.2114 C.2       1 <0>        -0.0334
     11 N2          3.6620    2.1486   -0.2216 N.pl3     1 <0>        -0.3554
     12 C9          3.9781    3.4648   -0.3131 C.2       1 <0>         0.0231
     13 C10         5.3269    3.5902   -0.3621 C.2       1 <0>        -0.1734
     14 C11         5.8813    2.3076   -0.2973 C.2       1 <0>        -0.1130
     15 O1          5.9020   -0.7719   -0.1098 O.3       1 <0>        -0.2960
     16 C12         5.7597   -2.1909   -0.0182 C.3       1 <0>         0.0489
     17 C13         7.1436   -2.8434   -0.0202 C.3       1 <0>         0.1122
     18 N3          7.8718   -2.4480    1.1880 N.pl3     1 <0>        -0.6283
     19 C14         9.1214   -2.9055    1.4017 C.2       1 <0>         0.5318
     20 N4          9.7912   -2.5417    2.5132 N.pl3     1 <0>        -0.6418
     21 C15        11.0516   -3.0765    2.7736 C.ar      1 <0>         0.4088
     22 C16        11.4017   -3.4118    4.0769 C.ar      1 <0>        -0.1240
     23 C17        12.6557   -3.9422    4.3218 C.ar      1 <0>         0.0438
     24 C18        13.5209   -4.1199    3.2495 C.ar      1 <0>        -0.1309
     25 C19        13.1065   -3.7645    1.9805 C.ar      1 <0>         0.1818
     26 N5         11.9021   -3.2654    1.7772 N.ar      1 <0>        -0.4261
     27 Br1        15.2477   -4.8401    3.5242 Br        1 <0>         0.0603
     28 S1          9.8578   -3.9486    0.2613 S.2       1 <0>        -0.5584
     29 H1         -0.8756    2.0510   -0.0755 H         1 <0>         0.1520
     30 H2          1.2623    3.2528   -0.2176 H         1 <0>         0.1435
     31 H3         -0.9140   -0.4036    0.0730 H         1 <0>         0.1535
     32 H4          3.2702    4.2799   -0.3425 H         1 <0>         0.1817
     33 H5          5.8765    4.5168   -0.4368 H         1 <0>         0.1605
     34 H6          6.9327    2.0612   -0.3141 H         1 <0>         0.1537
     35 H7          5.2396   -2.4450    0.9054 H         1 <0>         0.0874
     36 H8          5.1854   -2.5543   -0.8703 H         1 <0>         0.1106
     37 H9          7.0341   -3.9277   -0.0399 H         1 <0>         0.1309
     38 H10         7.6974   -2.5181   -0.9010 H         1 <0>         0.1193
     39 H11        10.7040   -3.2599    4.8872 H         1 <0>         0.1957
     40 H12        12.9554   -4.2116    5.3237 H         1 <0>         0.1924
     41 H13        13.7754   -3.9007    1.1435 H         1 <0>         0.2212
     42 H14         7.4545   -1.8570    1.8341 H         1 <0>         0.4168
     43 H15        11.6347   -3.0275    0.8757 H         1 <0>         0.4553
     44 H16         9.3961   -1.9078    3.1320 H         1 <0>         0.4411
@<TRIPOS>BOND
     1    1    6 ar
     2    1    2 ar
     3    1   29 1
     4    2    3 ar
     5    2   30 1
     6    3   11 1
     7    3    4 ar
     8    4    5 ar
     9    4    8 1
    10    5    6 ar
    11    5    7 1
    12    6   31 1
    13    8    9 2
    14    9   10 1
    15    9   15 1
    16   10   14 2
    17   10   11 1
    18   11   12 1
    19   12   13 2
    20   12   32 1
    21   13   14 1
    22   13   33 1
    23   14   34 1
    24   15   16 1
    25   16   17 1
    26   16   35 1
    27   16   36 1
    28   17   18 1
    29   17   37 1
    30   17   38 1
    31   18   19 1
    32   18   42 1
    33   19   20 1
    34   19   28 2
    35   20   21 1
    36   20   44 1
    37   21   26 ar
    38   21   22 ar
    39   22   23 ar
    40   22   39 1
    41   23   24 ar
    42   23   40 1
    43   24   25 ar
    44   24   27 1
    45   25   26 ar
    46   25   41 1
    47   26   43 1
@<TRIPOS>MOLECULE
CHEMBL418833__1
   42    45     0     0     0
SMALL
USER_CHARGES

@<TRIPOS>ATOM
      1 C1         -0.0110    1.3921    0.0040 C.ar      1 <0>        -0.0831
      2 C2          1.1706    2.1052   -0.0010 C.ar      1 <0>        -0.1258
      3 C3          2.3866    1.4357   -0.0161 C.ar      1 <0>         0.0920
      4 C4          2.4131    0.0330   -0.0258 C.ar      1 <0>         0.1010
      5 C5          1.2042   -0.6767   -0.0196 C.ar      1 <0>         0.1347
      6 C6          0.0064    0.0063   -0.0055 C.ar      1 <0>        -0.1463
      7 F1          1.2126   -2.0277   -0.0292 F         1 <0>        -0.1170
      8 N1          3.5936   -0.6412   -0.0414 N.2       1 <0>        -0.5579
      9 C7          4.7426   -0.0068   -0.0476 C.2       1 <0>         0.4349
     10 C8          4.7710    1.4541   -0.0371 C.2       1 <0>        -0.0296
     11 N2          3.5800    2.1512   -0.0221 N.pl3     1 <0>        -0.3573
     12 C9          3.8591    3.4789   -0.0161 C.2       1 <0>         0.0122
     13 C10         5.2043    3.6450   -0.0275 C.2       1 <0>        -0.1755
     14 C11         5.7947    2.3770   -0.0392 C.2       1 <0>        -0.1036
     15 O1          5.9021   -0.7064   -0.0632 O.3       1 <0>        -0.2765
     16 C12         5.7998   -2.1317   -0.0723 C.3       1 <0>         0.0572
     17 C13         7.2020   -2.7435   -0.0896 C.3       1 <0>         0.1381
     18 N3          7.8946   -2.4126    1.1582 N.pl3     1 <0>        -0.7447
     19 C14         9.1751   -2.8565    1.3704 C.2       1 <0>         0.6004
     20 N4          9.8339   -2.4759    2.4440 N.2       1 <0>        -0.6191
     21 C15         9.2094   -1.7255    3.3976 C.ar      1 <0>         0.3822
     22 C16         8.6410   -2.3514    4.5117 C.ar      1 <0>        -0.2028
     23 C17         8.0130   -1.5777    5.4679 C.ar      1 <0>        -0.0326
     24 C18         7.9699   -0.1997    5.2850 C.ar      1 <0>        -0.1988
     25 C19         8.5514    0.3546    4.1613 C.ar      1 <0>         0.1562
     26 N5          9.1503   -0.4040    3.2637 N.ar      1 <0>        -0.5118
     27 Br1         7.1219    0.9057    6.5636 Br        1 <0>        -0.0656
     28 S1          9.9377   -3.9362    0.2054 S.3       1 <0>        -0.8195
     29 H1         -0.9547    1.9170    0.0198 H         1 <0>         0.1442
     30 H2          1.1493    3.1850    0.0064 H         1 <0>         0.1378
     31 H3         -0.9240   -0.5421   -0.0014 H         1 <0>         0.1467
     32 H4          3.1283    4.2740   -0.0046 H         1 <0>         0.1762
     33 H5          5.7278    4.5896   -0.0266 H         1 <0>         0.1573
     34 H6          6.8530    2.1618   -0.0503 H         1 <0>         0.1596
     35 H7          5.2696   -2.4636    0.8203 H         1 <0>         0.0738
     36 H8          5.2531   -2.4511   -0.9596 H         1 <0>         0.0874
     37 H9          7.1247   -3.8265   -0.1861 H         1 <0>         0.0977
     38 H10         7.7630   -2.3427   -0.9338 H         1 <0>         0.0798
     39 H11         8.6922   -3.4245    4.6225 H         1 <0>         0.1345
     40 H12         7.5647   -2.0329    6.3387 H         1 <0>         0.1323
     41 H13         8.5185    1.4245    4.0176 H         1 <0>         0.1511
     42 H14         7.4478   -1.8797    1.8343 H         1 <0>         0.3802
@<TRIPOS>BOND
     1    1    6 ar
     2    1    2 ar
     3    1   29 1
     4    2    3 ar
     5    2   30 1
     6    3   11 1
     7    3    4 ar
     8    4    5 ar
     9    4    8 1
    10    5    6 ar
    11    5    7 1
    12    6   31 1
    13    8    9 2
    14    9   10 1
    15    9   15 1
    16   10   14 2
    17   10   11 1
    18   11   12 1
    19   12   13 2
    20   12   32 1
    21   13   14 1
    22   13   33 1
    23   14   34 1
    24   15   16 1
    25   16   17 1
    26   16   35 1
    27   16   36 1
    28   17   18 1
    29   17   37 1
    30   17   38 1
    31   18   19 1
    32   18   42 1
    33   19   20 2
    34   19   28 1
    35   20   21 1
    36   21   26 ar
    37   21   22 ar
    38   22   23 ar
    39   22   39 1
    40   23   24 ar
    41   23   40 1
    42   24   25 ar
    43   24   27 1
    44   25   26 ar
    45   25   41 1
@<TRIPOS>MOLECULE
CHEMBL418833__2
   43    46     0     0     0
SMALL
USER_CHARGES

@<TRIPOS>ATOM
      1 C1         -0.1056    1.2154    0.1063 C.ar      1 <0>        -0.0727
      2 C2          1.0634    1.9487    0.0845 C.ar      1 <0>        -0.1270
      3 C3          2.2904    1.3002    0.0573 C.ar      1 <0>         0.0974
      4 C4          2.3411   -0.1019    0.0524 C.ar      1 <0>         0.0903
      5 C5          1.1447   -0.8323    0.0756 C.ar      1 <0>         0.1400
      6 C6         -0.0644   -0.1700    0.1016 C.ar      1 <0>        -0.1445
      7 F1          1.1763   -2.1829    0.0708 F         1 <0>        -0.1160
      8 N1          3.5327   -0.7558    0.0250 N.2       1 <0>        -0.5482
      9 C7          4.6705   -0.1017    0.0028 C.2       1 <0>         0.4262
     10 C8          4.6738    1.3595    0.0077 C.2       1 <0>        -0.0320
     11 N2          3.4712    2.0360    0.0345 N.pl3     1 <0>        -0.3565
     12 C9          3.7274    3.3683    0.0323 C.2       1 <0>         0.0182
     13 C10         5.0693    3.5575    0.0042 C.2       1 <0>        -0.1746
     14 C11         5.6813    2.2998   -0.0100 C.2       1 <0>        -0.1095
     15 O1          5.8416   -0.7813   -0.0242 O.3       1 <0>        -0.2882
     16 C12         5.7638   -2.2082   -0.0269 C.3       1 <0>         0.0538
     17 C13         7.1761   -2.7959   -0.0588 C.3       1 <0>         0.1305
     18 N3          7.8777   -2.4484    1.1794 N.pl3     1 <0>        -0.6912
     19 C14         9.1630   -2.8676    1.3771 C.cat     1 <0>         0.4980
     20 N4          9.8186   -2.5429    2.5342 N.pl3     1 <0>        -0.6287
     21 C15        11.0791   -3.0776    2.7946 C.ar      1 <0>         0.3626
     22 C16        11.6868   -2.8420    4.0229 C.ar      1 <0>        -0.1956
     23 C17        12.9381   -3.3785    4.2687 C.ar      1 <0>        -0.0223
     24 C18        13.5415   -4.1360    3.2727 C.ar      1 <0>        -0.1718
     25 C19        12.8794   -4.3295    2.0758 C.ar      1 <0>         0.1579
     26 N5         11.6839   -3.8094    1.8724 N.ar      1 <0>        -0.4124
     27 Br1        15.2514   -4.8937    3.5521 Br        1 <0>        -0.0384
     28 S1          9.9295   -3.7708    0.2142 S.3       1 <0>        -0.4416
     29 H1         -1.0580    1.7240    0.1316 H         1 <0>         0.1486
     30 H2          1.0235    3.0279    0.0884 H         1 <0>         0.1410
     31 H3         -0.9851   -0.7342    0.1188 H         1 <0>         0.1506
     32 H4          2.9832    4.1508    0.0497 H         1 <0>         0.1793
     33 H5          5.5764    4.5110   -0.0046 H         1 <0>         0.1592
     34 H6          6.7430    2.1028   -0.0330 H         1 <0>         0.1565
     35 H7          5.2500   -2.5457    0.8731 H         1 <0>         0.0819
     36 H8          5.2121   -2.5403   -0.9064 H         1 <0>         0.1004
     37 H9          7.1163   -3.8804   -0.1505 H         1 <0>         0.1140
     38 H10         7.7199   -2.3886   -0.9112 H         1 <0>         0.1009
     39 H11         9.4060   -1.9406    3.1729 H         1 <0>         0.4094
     40 H12        11.1889   -2.2478    4.7748 H         1 <0>         0.1410
     41 H13        13.4346   -3.2119    5.2132 H         1 <0>         0.1479
     42 H14        13.3444   -4.9173    1.2982 H         1 <0>         0.1688
     43 H15         7.4297   -1.9206    1.8589 H         1 <0>         0.3968
@<TRIPOS>BOND
     1    1    6 ar
     2    1    2 ar
     3    1   29 1
     4    2    3 ar
     5    2   30 1
     6    3   11 1
     7    3    4 ar
     8    4    5 ar
     9    4    8 1
    10    5    6 ar
    11    5    7 1
    12    6   31 1
    13    8    9 2
    14    9   10 1
    15    9   15 1
    16   10   14 2
    17   10   11 1
    18   11   12 1
    19   12   13 2
    20   12   32 1
    21   13   14 1
    22   13   33 1
    23   14   34 1
    24   15   16 1
    25   16   17 1
    26   16   35 1
    27   16   36 1
    28   17   18 1
    29   17   37 1
    30   17   38 1
    31   18   19 2
    32   18   43 1
    33   19   20 1
    34   19   28 1
    35   20   21 1
    36   20   39 1
    37   21   26 ar
    38   21   22 ar
    39   22   23 ar
    40   22   40 1
    41   23   24 ar
    42   23   41 1
    43   24   25 ar
    44   24   27 1
    45   25   26 ar
    46   25   42 1
@<TRIPOS>MOLECULE
CHEMBL445136
   53    57     0     0     0
SMALL
USER_CHARGES

@<TRIPOS>ATOM
      1 C1         -0.0187    1.5258    0.0104 C.3       1 <0>        -0.1657
      2 C2          0.0021   -0.0041    0.0020 C.3       1 <0>         0.1200
      3 N1          0.6878   -0.4765   -1.2033 N.pl3     1 <0>        -0.7517
      4 C3          0.8322   -1.8493   -1.4335 C.ar      1 <0>         0.1856
      5 C4          0.3206   -2.7640   -0.5226 C.ar      1 <0>        -0.1582
      6 C5          0.4631   -4.1186   -0.7508 C.ar      1 <0>        -0.0964
      7 C6          1.1170   -4.5655   -1.8895 C.ar      1 <0>         0.0678
      8 C7          1.6287   -3.6525   -2.7997 C.ar      1 <0>        -0.1563
      9 C8          1.4821   -2.2975   -2.5759 C.ar      1 <0>        -0.1566
     10 O1          1.2569   -5.8996   -2.1135 O.3       1 <0>        -0.3099
     11 C9          1.9411   -6.2890   -3.3061 C.3       1 <0>         0.1053
     12 C10         1.9990   -7.7929   -3.3837 C.ar      1 <0>        -0.0557
     13 C11         1.4312   -8.5758   -2.3883 C.ar      1 <0>        -0.1317
     14 C12         1.4982   -9.9500   -2.4901 C.ar      1 <0>         0.1134
     15 N2          2.0783  -10.5244   -3.5267 N.ar      1 <0>        -0.4666
     16 C13         2.6256   -9.8169   -4.5048 C.ar      1 <0>         0.3647
     17 C14         2.6177   -8.4249   -4.4577 C.ar      1 <0>         0.0948
     18 N3          3.2522   -7.6519   -5.4265 N.am      1 <0>        -0.6465
     19 C15         3.2645   -7.8699   -6.7327 C.2       1 <0>         0.5812
     20 O2          3.8606   -7.0674   -7.4246 O.2       1 <0>        -0.5223
     21 C16         2.6214   -8.9962   -7.4156 C.ar      1 <0>        -0.1983
     22 C17         1.9834   -8.7983   -8.6459 C.ar      1 <0>        -0.0026
     23 C18         1.4219   -9.8930   -9.2796 C.ar      1 <0>        -0.1888
     24 C19         1.5107  -11.1405   -8.6885 C.ar      1 <0>         0.1490
     25 N4          2.1037  -11.3027   -7.5220 N.ar      1 <0>        -0.4941
     26 C20         2.6362  -10.2848   -6.8615 C.ar      1 <0>         0.4147
     27 N5          3.1798  -10.4876   -5.5955 N.pl3     1 <0>        -0.5549
     28 C21         4.3117  -11.3981   -5.4061 C.3       1 <0>         0.1031
     29 C22         4.9981  -11.9424   -6.6606 C.3       1 <0>        -0.1835
     30 C23         4.1173  -12.8607   -5.8110 C.3       1 <0>        -0.1798
     31 H1          1.0039    1.9031    0.0027 H         1 <0>         0.0613
     32 H2         -0.5459    1.8868   -0.8726 H         1 <0>         0.0613
     33 H3         -0.5289    1.8773    0.9072 H         1 <0>         0.0736
     34 H4          0.5293   -0.3651    0.8851 H         1 <0>         0.0587
     35 H5         -1.0205   -0.3814    0.0098 H         1 <0>         0.0586
     36 H6          1.0417    0.1622   -1.8418 H         1 <0>         0.3989
     37 H7         -0.1883   -2.4163    0.3642 H         1 <0>         0.1286
     38 H8          0.0656   -4.8302   -0.0423 H         1 <0>         0.1313
     39 H9          2.1380   -4.0012   -3.6858 H         1 <0>         0.1251
     40 H10         1.8764   -1.5868   -3.2870 H         1 <0>         0.1233
     41 H11         1.4081   -5.9006   -4.1740 H         1 <0>         0.0821
     42 H12         2.9540   -5.8866   -3.2917 H         1 <0>         0.0791
     43 H13         0.9427   -8.1142   -1.5429 H         1 <0>         0.1565
     44 H14         1.0698  -10.5636   -1.7113 H         1 <0>         0.1700
     45 H15         3.7355   -6.8720   -5.1117 H         1 <0>         0.4108
     46 H16         1.9304   -7.8151   -9.0895 H         1 <0>         0.1494
     47 H17         0.9189   -9.7744  -10.2279 H         1 <0>         0.1496
     48 H18         1.0864  -11.9969   -9.1913 H         1 <0>         0.1686
     49 H19         4.9379  -11.1954   -4.5372 H         1 <0>         0.1285
     50 H20         4.6074  -11.6230   -7.6267 H         1 <0>         0.0916
     51 H21         6.0761  -12.0977   -6.6172 H         1 <0>         0.1036
     52 H22         4.6158  -13.6202   -5.2087 H         1 <0>         0.0974
     53 H23         3.1471  -13.1454   -6.2183 H         1 <0>         0.1122
@<TRIPOS>BOND
     1    1    2 1
     2    1   31 1
     3    1   32 1
     4    1   33 1
     5    2    3 1
     6    2   34 1
     7    2   35 1
     8    3    4 1
     9    3   36 1
    10    4    9 ar
    11    4    5 ar
    12    5    6 ar
    13    5   37 1
    14    6    7 ar
    15    6   38 1
    16    7    8 ar
    17    7   10 1
    18    8    9 ar
    19    8   39 1
    20    9   40 1
    21   10   11 1
    22   11   12 1
    23   11   41 1
    24   11   42 1
    25   12   17 ar
    26   12   13 ar
    27   13   14 ar
    28   13   43 1
    29   14   15 ar
    30   14   44 1
    31   15   16 ar
    32   16   27 1
    33   16   17 ar
    34   17   18 1
    35   18   19 am
    36   18   45 1
    37   19   20 2
    38   19   21 1
    39   21   26 ar
    40   21   22 ar
    41   22   23 ar
    42   22   46 1
    43   23   24 ar
    44   23   47 1
    45   24   25 ar
    46   24   48 1
    47   25   26 ar
    48   26   27 1
    49   27   28 1
    50   28   30 1
    51   28   29 1
    52   28   49 1
    53   29   30 1
    54   29   50 1
    55   29   51 1
    56   30   52 1
    57   30   53 1
@<TRIPOS>MOLECULE
CHEMBL207900
   43    46     0     0     0
SMALL
USER_CHARGES

@<TRIPOS>ATOM
      1 C1          2.5277    0.7926   -5.7074 C.ar      1 <0>        -0.1077
      2 C2          3.7499    1.4129   -5.4557 C.ar      1 <0>        -0.0999
      3 C3          4.4434    1.1562   -4.3126 C.ar      1 <0>        -0.1070
      4 C4          3.9223    0.2545   -3.3713 C.ar      1 <0>        -0.0310
      5 C5          2.6795   -0.3764   -3.6259 C.ar      1 <0>        -0.0435
      6 C6          1.9921   -0.0869   -4.8176 C.ar      1 <0>        -0.1006
      7 C7          2.1563   -1.2788   -2.6846 C.ar      1 <0>        -0.0757
      8 C8          2.8438   -1.5402   -1.5388 C.ar      1 <0>        -0.1077
      9 C9          4.0652   -0.9261   -1.2779 C.ar      1 <0>        -0.0853
     10 C10         4.6122   -0.0357   -2.1756 C.ar      1 <0>         0.1188
     11 N1          5.8414    0.5755   -1.9038 N.pl3     1 <0>        -0.3090
     12 C11         6.9918   -0.0255   -1.4888 C.2       1 <0>         0.2026
     13 N2          7.8942    0.9232   -1.3582 N.2       1 <0>        -0.3285
     14 N3          7.3932    2.0662   -1.6599 N.2       1 <0>        -0.0244
     15 N4          6.1580    1.9416   -2.0058 N.2       1 <0>        -0.0634
     16 S1          7.2260   -1.7451   -1.1841 S.3       1 <0>         0.1294
     17 C12         8.9604   -1.8668   -0.6666 C.3       1 <0>        -0.1620
     18 C13         9.2966   -3.3058   -0.3711 C.2       1 <0>         0.5449
     19 O1          8.4496   -4.1647   -0.4973 O.2       1 <0>        -0.4957
     20 N5         10.5385   -3.6383    0.0333 N.am      1 <0>        -0.6585
     21 C14        10.8815   -4.9839    0.2051 C.ar      1 <0>         0.2226
     22 C15        10.2349   -5.9667   -0.5332 C.ar      1 <0>        -0.1350
     23 C16        10.5757   -7.2938   -0.3613 C.ar      1 <0>        -0.0409
     24 C17        11.5598   -7.6448    0.5450 C.ar      1 <0>        -0.1336
     25 C18        12.2050   -6.6689    1.2818 C.ar      1 <0>        -0.0340
     26 C19        11.8730   -5.3391    1.1100 C.ar      1 <0>        -0.0837
     27 N6         12.5692   -4.2944    1.8941 N.pl3     1 <0>         0.0437
     28 O2         13.5028   -4.5917    2.6023 O.2       1 <0>        -0.1377
     29 O3         12.2041   -3.1438    1.8263 O.3       1 <0>        -0.1852
     30 H1          1.9954    1.0166   -6.6200 H         1 <0>         0.1307
     31 H2          4.1531    2.1071   -6.1782 H         1 <0>         0.1295
     32 H3          5.3899    1.6437   -4.1310 H         1 <0>         0.1275
     33 H4          1.0438   -0.5599   -5.0257 H         1 <0>         0.1366
     34 H5          1.2095   -1.7644   -2.8695 H         1 <0>         0.1413
     35 H6          2.4345   -2.2352   -0.8205 H         1 <0>         0.1429
     36 H7          4.5903   -1.1502   -0.3611 H         1 <0>         0.1385
     37 H8          9.6046   -1.4998   -1.4656 H         1 <0>         0.1411
     38 H9          9.1151   -1.2661    0.2297 H         1 <0>         0.1432
     39 H10        11.1945   -2.9448    0.2052 H         1 <0>         0.4306
     40 H11         9.4662   -5.6933   -1.2408 H         1 <0>         0.1656
     41 H12        10.0731   -8.0585   -0.9348 H         1 <0>         0.1497
     42 H13        11.8245   -8.6834    0.6776 H         1 <0>         0.1514
     43 H14        12.9725   -6.9463    1.9892 H         1 <0>         0.1596
@<TRIPOS>BOND
     1    1    6 ar
     2    1    2 ar
     3    1   30 1
     4    2    3 ar
     5    2   31 1
     6    3    4 ar
     7    3   32 1
     8    4   10 ar
     9    4    5 ar
    10    5    6 ar
    11    5    7 ar
    12    6   33 1
    13    7    8 ar
    14    7   34 1
    15    8    9 ar
    16    8   35 1
    17    9   10 ar
    18    9   36 1
    19   10   11 1
    20   11   15 1
    21   11   12 1
    22   12   13 2
    23   12   16 1
    24   13   14 1
    25   14   15 2
    26   16   17 1
    27   17   18 1
    28   17   37 1
    29   17   38 1
    30   18   19 2
    31   18   20 am
    32   20   21 1
    33   20   39 1
    34   21   26 ar
    35   21   22 ar
    36   22   23 ar
    37   22   40 1
    38   23   24 ar
    39   23   41 1
    40   24   25 ar
    41   24   42 1
    42   25   26 ar
    43   25   43 1
    44   26   27 1
    45   27   28 2
    46   27   29 1
@<TRIPOS>MOLECULE
CHEMBL88729
   34    36     0     0     0
SMALL
USER_CHARGES

@<TRIPOS>ATOM
      1 C1         -0.0144    1.3933   -0.0014 C.ar      1 <0>        -0.1223
      2 C2          1.1735    2.1001   -0.0114 C.ar      1 <0>        -0.1107
      3 C3          2.3796    1.4248   -0.0246 C.ar      1 <0>        -0.1088
      4 C4          2.3977    0.0426   -0.0273 C.ar      1 <0>        -0.0547
      5 C5          1.2098   -0.6643   -0.0164 C.ar      1 <0>        -0.1413
      6 C6          0.0038    0.0110   -0.0046 C.ar      1 <0>        -0.1134
      7 C7          3.7126   -0.6937   -0.0426 C.3       1 <0>        -0.1197
      8 H1          4.5606   -0.1502    0.3740 H         1 <0>         0.1306
      9 C8          3.6758   -2.2096    0.1614 C.3       1 <0>        -0.1746
     10 C9          3.9840   -1.6303   -1.2216 C.3       1 <0>         0.0894
     11 H2          5.0107   -1.7034   -1.5803 H         1 <0>         0.1734
     12 N1          2.9459   -1.7428   -2.2491 N.pl3     1 <0>        -0.6545
     13 C10         3.2760   -2.1095   -3.5033 C.2       1 <0>         0.5290
     14 S1          4.9086   -2.4438   -3.8957 S.2       1 <0>        -0.4988
     15 N2          2.3210   -2.2129   -4.4486 N.pl3     1 <0>        -0.6180
     16 C11         2.6741   -2.4855   -5.7690 C.ar      1 <0>         0.3540
     17 C12         1.6961   -2.4851   -6.7576 C.ar      1 <0>        -0.1922
     18 C13         2.0598   -2.7573   -8.0642 C.ar      1 <0>        -0.0240
     19 C14         3.3957   -3.0218   -8.3389 C.ar      1 <0>        -0.1682
     20 C15         4.3140   -3.0054   -7.3070 C.ar      1 <0>         0.1560
     21 N3          3.9379   -2.7371   -6.0711 N.ar      1 <0>        -0.4024
     22 Br1         3.9510   -3.4010  -10.1063 Br        1 <0>        -0.0374
     23 H3         -0.9566    1.9209    0.0134 H         1 <0>         0.1244
     24 H4          1.1593    3.1800   -0.0093 H         1 <0>         0.1259
     25 H5          3.3077    1.9770   -0.0331 H         1 <0>         0.1261
     26 H6          1.2240   -1.7442   -0.0188 H         1 <0>         0.1215
     27 H7         -0.9243   -0.5412    0.0035 H         1 <0>         0.1244
     28 H8          4.4998   -2.6635    0.7119 H         1 <0>         0.1180
     29 H9          2.7006   -2.6744    0.3067 H         1 <0>         0.1019
     30 H10         2.0209   -1.5534   -2.0268 H         1 <0>         0.3975
     31 H11         1.3879   -2.0977   -4.2100 H         1 <0>         0.4099
     32 H12         0.6663   -2.2755   -6.5085 H         1 <0>         0.1413
     33 H13         1.3220   -2.7643   -8.8529 H         1 <0>         0.1487
     34 H14         5.3537   -3.2104   -7.5152 H         1 <0>         0.1691
@<TRIPOS>BOND
     1    1    6 ar
     2    1    2 ar
     3    1   23 1
     4    2    3 ar
     5    2   24 1
     6    3    4 ar
     7    3   25 1
     8    4    5 ar
     9    4    7 1
    10    5    6 ar
    11    5   26 1
    12    6   27 1
    13    7    8 1
    14    7   10 1
    15    7    9 1
    16    9   10 1
    17    9   28 1
    18    9   29 1
    19   10   11 1
    20   10   12 1
    21   12   13 1
    22   12   30 1
    23   13   14 2
    24   13   15 1
    25   15   16 1
    26   15   31 1
    27   16   21 ar
    28   16   17 ar
    29   17   18 ar
    30   17   32 1
    31   18   19 ar
    32   18   33 1
    33   19   20 ar
    34   19   22 1
    35   20   21 ar
    36   20   34 1
@<TRIPOS>MOLECULE
CHEMBL103386
   47    50     0     0     0
SMALL
USER_CHARGES

@<TRIPOS>ATOM
      1 C1         -0.0187    1.5258    0.0104 C.3       1 <0>        -0.1713
      2 C2          0.0021   -0.0041    0.0020 C.3       1 <0>         0.1354
      3 N1          0.6878   -0.4765   -1.2033 N.pl3     1 <0>        -0.5771
      4 C3         -0.0294   -0.7093   -2.3768 C.ar      1 <0>         0.3806
      5 C4          0.2592    0.0020   -3.5389 C.ar      1 <0>         0.0973
      6 C5         -0.4390   -0.3005   -4.7037 C.ar      1 <0>        -0.0727
      7 C6         -1.4212   -1.2794   -4.6556 C.ar      1 <0>        -0.1351
      8 C7         -1.6761   -1.9213   -3.4595 C.ar      1 <0>         0.1841
      9 N2         -0.9871   -1.6263   -2.3726 N.ar      1 <0>        -0.4680
     10 Cl1        -2.9188   -3.1312   -3.3841 Cl        1 <0>        -0.0159
     11 N3          1.1873    1.0408   -3.5541 N.am      1 <0>        -0.5370
     12 C8          2.3528    1.0748   -2.9252 C.2       1 <0>         0.5768
     13 O1          3.0365    2.0688   -3.0757 O.2       1 <0>        -0.5167
     14 C9          2.8892    0.0171   -2.0630 C.ar      1 <0>        -0.1963
     15 C10         2.0554   -0.6913   -1.1915 C.ar      1 <0>         0.4202
     16 N4          2.5741   -1.5848   -0.3616 N.ar      1 <0>        -0.4926
     17 C11         3.8622   -1.8676   -0.3601 C.ar      1 <0>         0.1752
     18 C12         4.7345   -1.2399   -1.2304 C.ar      1 <0>        -0.1472
     19 C13         4.2542   -0.2882   -2.0933 C.ar      1 <0>         0.0178
     20 C14         6.1974   -1.6016   -1.2327 C.3       1 <0>        -0.0612
     21 S1          6.4839   -2.9550   -2.4062 S.3       1 <0>        -0.1060
     22 C15         8.2161   -3.2572   -2.2937 C.ar      1 <0>        -0.0858
     23 C16         8.9990   -2.5074   -1.4241 C.ar      1 <0>        -0.1342
     24 C17        10.3562   -2.7471   -1.3386 C.ar      1 <0>        -0.0996
     25 C18        10.9365   -3.7319   -2.1171 C.ar      1 <0>        -0.1235
     26 C19        10.1606   -4.4798   -2.9839 C.ar      1 <0>        -0.0999
     27 C20         8.8018   -4.2499   -3.0702 C.ar      1 <0>        -0.0996
     28 C21         0.8376    2.2201   -4.3500 C.3       1 <0>         0.0639
     29 H1          1.0039    1.9031    0.0027 H         1 <0>         0.0549
     30 H2         -0.5459    1.8868   -0.8726 H         1 <0>         0.0546
     31 H3         -0.5289    1.8773    0.9072 H         1 <0>         0.0743
     32 H4          0.5293   -0.3651    0.8851 H         1 <0>         0.0864
     33 H5         -1.0205   -0.3814    0.0098 H         1 <0>         0.0859
     34 H6         -0.2206    0.2159   -5.6268 H         1 <0>         0.1600
     35 H7         -1.9797   -1.5367   -5.5434 H         1 <0>         0.1592
     36 H8          4.2426   -2.6030    0.3332 H         1 <0>         0.1709
     37 H9          4.9193    0.2181   -2.7772 H         1 <0>         0.1514
     38 H10         6.7859   -0.7333   -1.5288 H         1 <0>         0.1040
     39 H11         6.4950   -1.9185   -0.2331 H         1 <0>         0.1063
     40 H12         8.5465   -1.7379   -0.8162 H         1 <0>         0.1230
     41 H13        10.9653   -2.1645   -0.6634 H         1 <0>         0.1267
     42 H14        11.9983   -3.9172   -2.0481 H         1 <0>         0.1262
     43 H15        10.6173   -5.2479   -3.5905 H         1 <0>         0.1291
     44 H16         8.1957   -4.8379   -3.7434 H         1 <0>         0.1278
     45 H17         0.2956    2.9313   -3.7267 H         1 <0>         0.0700
     46 H18         1.7476    2.6870   -4.7267 H         1 <0>         0.0959
     47 H19         0.2095    1.9193   -5.1885 H         1 <0>         0.0816
@<TRIPOS>BOND
     1    1    2 1
     2    1   29 1
     3    1   30 1
     4    1   31 1
     5    2    3 1
     6    2   32 1
     7    2   33 1
     8    3   15 1
     9    3    4 1
    10    4    9 ar
    11    4    5 ar
    12    5    6 ar
    13    5   11 1
    14    6    7 ar
    15    6   34 1
    16    7    8 ar
    17    7   35 1
    18    8    9 ar
    19    8   10 1
    20   11   12 am
    21   11   28 1
    22   12   13 2
    23   12   14 1
    24   14   19 ar
    25   14   15 ar
    26   15   16 ar
    27   16   17 ar
    28   17   18 ar
    29   17   36 1
    30   18   19 ar
    31   18   20 1
    32   19   37 1
    33   20   21 1
    34   20   38 1
    35   20   39 1
    36   21   22 1
    37   22   27 ar
    38   22   23 ar
    39   23   24 ar
    40   23   40 1
    41   24   25 ar
    42   24   41 1
    43   25   26 ar
    44   25   42 1
    45   26   27 ar
    46   26   43 1
    47   27   44 1
    48   28   45 1
    49   28   46 1
    50   28   47 1
@<TRIPOS>MOLECULE
CHEMBL135690
   52    54     0     0     0
SMALL
USER_CHARGES

@<TRIPOS>ATOM
      1 C1          0.0385    0.7853    0.6089 C.3       1 <0>        -0.1447
      2 C2         -0.2572   -0.6710    0.2447 C.3       1 <0>        -0.0710
      3 C3         -1.7402   -0.8471    0.0427 C.2       1 <0>        -0.1438
      4 C4         -2.5839   -1.0888    1.1379 C.2       1 <0>         0.5392
      5 O1         -2.1221   -1.1578    2.2642 O.2       1 <0>        -0.4780
      6 N1         -3.9074   -1.2436    0.9374 N.am      1 <0>        -0.6077
      7 H1         -4.4917   -1.4107    1.6934 H         1 <0>         0.4455
      8 C5         -4.4257   -1.1681   -0.3018 C.2       1 <0>         0.5185
      9 S1         -6.1113   -1.3685   -0.5243 S.2       1 <0>        -0.5044
     10 N2         -3.6393   -0.9369   -1.3691 N.pl3     1 <0>        -0.4854
     11 C6         -2.2842   -0.7681   -1.2102 C.2       1 <0>         0.0953
     12 S2         -1.2567   -0.4587   -2.6078 S.3       1 <0>         0.0751
     13 C7         -1.2667   -1.9839   -3.4902 C.ar      1 <0>        -0.1306
     14 C8         -1.9587   -3.0768   -2.9835 C.ar      1 <0>        -0.1226
     15 C9         -1.9644   -4.2706   -3.6775 C.ar      1 <0>        -0.0956
     16 C10        -1.2823   -4.3790   -4.8757 C.ar      1 <0>        -0.1058
     17 C11        -0.5921   -3.2931   -5.3827 C.ar      1 <0>        -0.0971
     18 C12        -0.5873   -2.0945   -4.6969 C.ar      1 <0>        -0.0842
     19 C13        -4.2312   -0.8597   -2.7070 C.3       1 <0>         0.2594
     20 O2         -4.9150    0.3864   -2.8542 O.3       1 <0>        -0.3421
     21 C14        -4.0479    1.5066   -3.0420 C.3       1 <0>         0.0527
     22 C15        -4.8750    2.7936   -3.0647 C.3       1 <0>        -0.0829
     23 C16        -5.7967    2.7860   -4.2859 C.3       1 <0>        -0.1105
     24 C17        -6.6238    4.0729   -4.3086 C.3       1 <0>        -0.1208
     25 C18        -5.6868    5.2801   -4.3843 C.3       1 <0>        -0.1211
     26 C19        -4.7651    5.2877   -3.1631 C.3       1 <0>        -0.1182
     27 C20        -3.9380    4.0007   -3.1404 C.3       1 <0>        -0.1121
     28 H2          1.1112    0.9127    0.7549 H         1 <0>         0.0724
     29 H3         -0.2983    1.4370   -0.1972 H         1 <0>         0.0549
     30 H4         -0.4866    1.0437    1.5285 H         1 <0>         0.0594
     31 H5          0.2679   -0.9294   -0.6749 H         1 <0>         0.0973
     32 H6          0.0796   -1.3227    1.0508 H         1 <0>         0.0927
     33 H7         -2.4913   -2.9929   -2.0477 H         1 <0>         0.1140
     34 H8         -2.5019   -5.1207   -3.2840 H         1 <0>         0.1316
     35 H9         -1.2884   -5.3138   -5.4165 H         1 <0>         0.1325
     36 H10        -0.0598   -3.3813   -6.3183 H         1 <0>         0.1359
     37 H11        -0.0523   -1.2454   -5.0960 H         1 <0>         0.1342
     38 H12        -3.4439   -0.9330   -3.4574 H         1 <0>         0.1024
     39 H13        -4.9371   -1.6795   -2.8399 H         1 <0>         0.1481
     40 H14        -3.3293    1.5510   -2.2237 H         1 <0>         0.0450
     41 H15        -3.5159    1.3998   -3.9873 H         1 <0>         0.0621
     42 H16        -5.4752    2.8558   -2.1569 H         1 <0>         0.0787
     43 H17        -5.1966    2.7237   -5.1937 H         1 <0>         0.0603
     44 H18        -6.4642    1.9260   -4.2319 H         1 <0>         0.0718
     45 H19        -7.2804    4.0675   -5.1786 H         1 <0>         0.0627
     46 H20        -7.2239    4.1352   -3.4008 H         1 <0>         0.0619
     47 H21        -5.0867    5.2178   -5.2921 H         1 <0>         0.0614
     48 H22        -6.2760    6.1970   -4.4005 H         1 <0>         0.0614
     49 H23        -4.0976    6.1477   -3.2171 H         1 <0>         0.0637
     50 H24        -5.3653    5.3500   -2.2554 H         1 <0>         0.0622
     51 H25        -3.2814    4.0061   -2.2704 H         1 <0>         0.0605
     52 H26        -3.3379    3.9384   -4.0482 H         1 <0>         0.0654
@<TRIPOS>BOND
     1    1    2 1
     2    1   28 1
     3    1   29 1
     4    1   30 1
     5    2    3 1
     6    2   31 1
     7    2   32 1
     8    3   11 2
     9    3    4 1
    10    4    5 2
    11    4    6 am
    12    6    7 1
    13    6    8 1
    14    8    9 2
    15    8   10 1
    16   10   11 1
    17   10   19 1
    18   11   12 1
    19   12   13 1
    20   13   18 ar
    21   13   14 ar
    22   14   15 ar
    23   14   33 1
    24   15   16 ar
    25   15   34 1
    26   16   17 ar
    27   16   35 1
    28   17   18 ar
    29   17   36 1
    30   18   37 1
    31   19   20 1
    32   19   38 1
    33   19   39 1
    34   20   21 1
    35   21   22 1
    36   21   40 1
    37   21   41 1
    38   22   27 1
    39   22   23 1
    40   22   42 1
    41   23   24 1
    42   23   43 1
    43   23   44 1
    44   24   25 1
    45   24   45 1
    46   24   46 1
    47   25   26 1
    48   25   47 1
    49   25   48 1
    50   26   27 1
    51   26   49 1
    52   26   50 1
    53   27   51 1
    54   27   52 1
@<TRIPOS>MOLECULE
CHEMBL93822
   37    38     0     0     0
SMALL
USER_CHARGES

@<TRIPOS>ATOM
      1 C1          1.1302   -0.7104   -0.0236 C.ar      1 <0>        -0.0242
      2 C2          2.3504   -0.0579   -0.0282 C.ar      1 <0>        -0.1932
      3 C3          2.3742    1.3320   -0.0180 C.ar      1 <0>         0.3541
      4 N1          1.2468    2.0257   -0.0042 N.ar      1 <0>        -0.4029
      5 C4          0.0689    1.4319    0.0004 C.ar      1 <0>         0.1561
      6 C5         -0.0295    0.0536   -0.0090 C.ar      1 <0>        -0.1689
      7 Br1        -1.7252   -0.7834   -0.0028 Br        1 <0>        -0.0381
      8 N2          3.5966    2.0016   -0.0220 N.pl3     1 <0>        -0.6193
      9 C6          3.6285    3.3456   -0.1173 C.2       1 <0>         0.5204
     10 S1          2.1688    4.2399   -0.0988 S.2       1 <0>        -0.5006
     11 N3          4.8096    3.9855   -0.2271 N.pl3     1 <0>        -0.6819
     12 C7          4.8442    5.4464   -0.3306 C.3       1 <0>         0.1288
     13 C8          6.2962    5.9154   -0.4436 C.3       1 <0>        -0.0997
     14 C9          6.3319    7.4182   -0.5501 C.2       1 <0>        -0.1224
     15 C10         6.5136    8.0995    0.5355 C.2       1 <0>        -0.1409
     16 C11         6.5618    9.5984    0.5893 C.3       1 <0>        -0.0927
     17 C12         6.7947   10.1689   -0.8114 C.3       1 <0>        -0.1220
     18 C13         5.7967    9.5134   -1.7743 C.3       1 <0>        -0.1213
     19 C14         6.1605    8.0316   -1.9089 C.3       1 <0>        -0.0836
     20 H1          1.0807   -1.7892   -0.0357 H         1 <0>         0.1483
     21 H2          3.2720   -0.6209   -0.0391 H         1 <0>         0.1411
     22 H3         -0.8300    2.0305    0.0122 H         1 <0>         0.1686
     23 H4          4.4244    1.5002    0.0438 H         1 <0>         0.4098
     24 H5          5.6366    3.4788   -0.2376 H         1 <0>         0.3956
     25 H6          4.2909    5.7612   -1.2154 H         1 <0>         0.0903
     26 H7          4.3890    5.8845    0.5575 H         1 <0>         0.0898
     27 H8          6.8495    5.6006    0.4412 H         1 <0>         0.0742
     28 H9          6.7515    5.4773   -1.3317 H         1 <0>         0.0759
     29 H10         6.6380    7.5553    1.4600 H         1 <0>         0.1031
     30 H11         5.6175    9.9764    0.9810 H         1 <0>         0.0762
     31 H12         7.3738    9.9104    1.2461 H         1 <0>         0.0716
     32 H13         6.6372   11.2474   -0.7986 H         1 <0>         0.0657
     33 H14         7.8126    9.9480   -1.1324 H         1 <0>         0.0634
     34 H15         4.7862    9.6116   -1.3776 H         1 <0>         0.0673
     35 H16         5.8588    9.9950   -2.7502 H         1 <0>         0.0662
     36 H17         7.0902    7.9336   -2.4694 H         1 <0>         0.0727
     37 H18         5.3635    7.5128   -2.4416 H         1 <0>         0.0723
@<TRIPOS>BOND
     1    1    6 ar
     2    1    2 ar
     3    1   20 1
     4    2    3 ar
     5    2   21 1
     6    3    4 ar
     7    3    8 1
     8    4    5 ar
     9    5    6 ar
    10    5   22 1
    11    6    7 1
    12    8    9 1
    13    8   23 1
    14    9   10 2
    15    9   11 1
    16   11   12 1
    17   11   24 1
    18   12   13 1
    19   12   25 1
    20   12   26 1
    21   13   14 1
    22   13   27 1
    23   13   28 1
    24   14   19 1
    25   14   15 2
    26   15   16 1
    27   15   29 1
    28   16   17 1
    29   16   30 1
    30   16   31 1
    31   17   18 1
    32   17   32 1
    33   17   33 1
    34   18   19 1
    35   18   34 1
    36   18   35 1
    37   19   36 1
    38   19   37 1
@<TRIPOS>MOLECULE
CHEMBL55277
   49    51     0     0     0
SMALL
USER_CHARGES

@<TRIPOS>ATOM
      1 C1         -0.0277    0.9038   -0.1141 C.3       1 <0>        -0.1448
      2 C2          0.0495   -0.5671    0.3000 C.3       1 <0>        -0.0650
      3 C3          0.6977   -0.6737    1.6563 C.2       1 <0>        -0.1794
      4 C4          2.0955   -0.7041    1.7766 C.2       1 <0>         0.5552
      5 O1          2.7980   -0.6439    0.7818 O.2       1 <0>        -0.4959
      6 N1          2.6569   -0.7998    2.9978 N.am      1 <0>        -0.6555
      7 H1          3.6230   -0.8209    3.0823 H         1 <0>         0.4342
      8 C5          1.8897   -0.8658    4.1010 C.2       1 <0>         0.6983
      9 O2          2.4173   -0.9514    5.1931 O.2       1 <0>        -0.5291
     10 N2          0.5470   -0.8382    4.0141 N.am      1 <0>        -0.5174
     11 C6         -0.0680   -0.7365    2.7882 C.2       1 <0>         0.1291
     12 S1         -1.8259   -0.6936    2.6761 S.3       1 <0>         0.0741
     13 C7         -2.3249   -2.3056    3.1832 C.ar      1 <0>        -0.1169
     14 C8         -1.3703   -3.2840    3.4313 C.ar      1 <0>        -0.1285
     15 C9         -1.7648   -4.5463    3.8285 C.ar      1 <0>        -0.0581
     16 C10        -3.1084   -4.8371    3.9794 C.ar      1 <0>        -0.1127
     17 C11        -4.0613   -3.8656    3.7328 C.ar      1 <0>        -0.0593
     18 C12        -3.6735   -2.5994    3.3412 C.ar      1 <0>        -0.0952
     19 C13        -5.5243   -4.1874    3.8975 C.3       1 <0>        -0.1183
     20 C14        -0.7301   -5.6084    4.0974 C.3       1 <0>        -0.1199
     21 C15        -0.2636   -0.9112    5.2321 C.3       1 <0>         0.1343
     22 C16        -0.4217    0.4700    5.8139 C.2       1 <0>        -0.1609
     23 C17        -1.6366    0.9590    6.0451 C.2       1 <0>        -0.0521
     24 C18        -1.7953    2.3468    6.5055 C.2       1 <0>         0.0055
     25 C19        -2.9758    2.9674    6.7831 C.2       1 <0>        -0.1830
     26 C20        -2.6590    4.2785    7.1880 C.2       1 <0>        -0.2144
     27 C21        -1.3169    4.3943    7.1387 C.2       1 <0>        -0.0299
     28 O3         -0.7980    3.2243    6.7318 O.3       1 <0>        -0.1729
     29 H2          0.9779    1.3221   -0.1581 H         1 <0>         0.0580
     30 H3         -0.4965    0.9809   -1.0951 H         1 <0>         0.0677
     31 H4         -0.6194    1.4562    0.6158 H         1 <0>         0.0539
     32 H5         -0.9560   -0.9854    0.3440 H         1 <0>         0.0931
     33 H6          0.6413   -1.1195   -0.4299 H         1 <0>         0.0878
     34 H7         -0.3209   -3.0577    3.3133 H         1 <0>         0.1171
     35 H8         -3.4142   -5.8252    4.2901 H         1 <0>         0.1292
     36 H9         -4.4179   -1.8397    3.1538 H         1 <0>         0.1327
     37 H10        -5.8311   -3.9703    4.9207 H         1 <0>         0.0760
     38 H11        -6.1098   -3.5812    3.2063 H         1 <0>         0.0709
     39 H12        -5.6903   -5.2435    3.6848 H         1 <0>         0.0712
     40 H13        -0.3690   -5.5129    5.1214 H         1 <0>         0.0752
     41 H14        -1.1762   -6.5934    3.9598 H         1 <0>         0.0726
     42 H15         0.1034   -5.4872    3.4055 H         1 <0>         0.0677
     43 H16        -1.2455   -1.3186    4.9912 H         1 <0>         0.1077
     44 H17         0.2295   -1.5571    5.9586 H         1 <0>         0.1154
     45 H18         0.4515    1.0626    6.0430 H         1 <0>         0.1252
     46 H19        -2.5067    0.3371    5.8947 H         1 <0>         0.1477
     47 H20        -3.9636    2.5372    6.7072 H         1 <0>         0.1526
     48 H21        -3.3592    5.0464    7.4818 H         1 <0>         0.1520
     49 H22        -0.7521    5.2801    7.3892 H         1 <0>         0.2050
@<TRIPOS>BOND
     1    1    2 1
     2    1   29 1
     3    1   30 1
     4    1   31 1
     5    2    3 1
     6    2   32 1
     7    2   33 1
     8    3   11 2
     9    3    4 1
    10    4    5 2
    11    4    6 am
    12    6    7 1
    13    6    8 am
    14    8    9 2
    15    8   10 am
    16   10   11 1
    17   10   21 1
    18   11   12 1
    19   12   13 1
    20   13   18 ar
    21   13   14 ar
    22   14   15 ar
    23   14   34 1
    24   15   16 ar
    25   15   20 1
    26   16   17 ar
    27   16   35 1
    28   17   18 ar
    29   17   19 1
    30   18   36 1
    31   19   37 1
    32   19   38 1
    33   19   39 1
    34   20   40 1
    35   20   41 1
    36   20   42 1
    37   21   22 1
    38   21   43 1
    39   21   44 1
    40   22   23 2
    41   22   45 1
    42   23   24 1
    43   23   46 1
    44   24   28 1
    45   24   25 2
    46   25   26 1
    47   25   47 1
    48   26   27 2
    49   26   48 1
    50   27   28 1
    51   27   49 1
@<TRIPOS>MOLECULE
CHEMBL313404
   49    51     0     0     0
SMALL
USER_CHARGES

@<TRIPOS>ATOM
      1 C1         -0.0187    1.5258    0.0104 C.3       1 <0>        -0.1489
      2 C2          0.0021   -0.0041    0.0020 C.3       1 <0>        -0.0696
      3 C3         -1.4117   -0.5257    0.0127 C.2       1 <0>        -0.1281
      4 C4         -2.0964   -0.6700    1.2283 C.2       1 <0>        -0.1442
      5 C5         -3.3792   -1.1443    1.2205 C.2       1 <0>         0.1113
      6 C6         -3.9830   -1.4773   -0.0120 C.2       1 <0>         0.5135
      7 N1         -3.2953   -1.3259   -1.1599 N.am      1 <0>        -0.5928
      8 C7         -2.0214   -0.8491   -1.1501 C.2       1 <0>         0.0840
      9 C8         -1.2783   -0.6846   -2.4508 C.3       1 <0>        -0.1181
     10 O1         -5.1271   -1.9024   -0.0367 O.2       1 <0>        -0.5501
     11 N2         -4.0851   -1.2984    2.4201 N.pl3     1 <0>        -0.7187
     12 C9         -5.4588   -1.8073    2.4015 C.3       1 <0>         0.2011
     13 C10        -5.9877   -1.8773    3.8109 C.ar      1 <0>         0.0852
     14 C11        -5.8083   -3.0337    4.5566 C.ar      1 <0>         0.0936
     15 C12        -6.3070   -3.0764    5.8520 C.ar      1 <0>        -0.1726
     16 C13        -6.9653   -1.9589    6.3547 C.ar      1 <0>        -0.0787
     17 C14        -7.1012   -0.8441    5.5589 C.ar      1 <0>         0.0956
     18 N3         -6.6105   -0.8405    4.3259 N.ar      1 <0>        -0.4350
     19 C15        -7.7860    0.4100    6.0392 C.3       1 <0>        -0.0638
     20 C16        -8.6492    0.1152    7.2640 C.3       1 <0>        -0.1206
     21 C17        -7.7918   -0.6291    8.2943 C.3       1 <0>        -0.1216
     22 C18        -7.5037   -2.0303    7.7584 C.3       1 <0>        -0.0800
     23 O2         -5.1576   -4.1040    4.0293 O.3       1 <0>        -0.3014
     24 C19        -5.0168   -5.2542    4.8655 C.3       1 <0>         0.0239
     25 H1          1.0039    1.9031    0.0027 H         1 <0>         0.0570
     26 H2         -0.5459    1.8868   -0.8726 H         1 <0>         0.0546
     27 H3         -0.5289    1.8773    0.9072 H         1 <0>         0.0559
     28 H4          0.5123   -0.3556   -0.8948 H         1 <0>         0.0735
     29 H5          0.5293   -0.3651    0.8851 H         1 <0>         0.0724
     30 H6         -1.6159   -0.4098    2.1599 H         1 <0>         0.1275
     31 H7         -0.7443   -1.6060   -2.6831 H         1 <0>         0.0806
     32 H8         -1.9873   -0.4644   -3.2489 H         1 <0>         0.0707
     33 H9         -0.5659    0.1354   -2.3610 H         1 <0>         0.0896
     34 H10        -3.7145   -1.5560   -2.0038 H         1 <0>         0.4148
     35 H11        -3.6646   -1.0682    3.2633 H         1 <0>         0.4018
     36 H12        -6.0857   -1.1392    1.8109 H         1 <0>         0.0831
     37 H13        -5.4713   -2.8032    1.9588 H         1 <0>         0.0863
     38 H14        -6.1861   -3.9619    6.4584 H         1 <0>         0.1406
     39 H15        -7.0327    1.1531    6.3009 H         1 <0>         0.0819
     40 H16        -8.4162    0.8034    5.2416 H         1 <0>         0.0844
     41 H17        -9.0079    1.0507    7.6932 H         1 <0>         0.0754
     42 H18        -9.4960   -0.5069    6.9742 H         1 <0>         0.0676
     43 H19        -6.8543   -0.0944    8.4468 H         1 <0>         0.0678
     44 H20        -8.3319   -0.7009    9.2384 H         1 <0>         0.0730
     45 H21        -8.4252   -2.6125    7.7608 H         1 <0>         0.0820
     46 H22        -6.7699   -2.5171    8.4007 H         1 <0>         0.0779
     47 H23        -4.4591   -4.9852    5.7625 H         1 <0>         0.0563
     48 H24        -6.0036   -5.6213    5.1477 H         1 <0>         0.0568
     49 H25        -4.4804   -6.0335    4.3242 H         1 <0>         0.1045
@<TRIPOS>BOND
     1    1    2 1
     2    1   25 1
     3    1   26 1
     4    1   27 1
     5    2   28 1
     6    2   29 1
     7    2    3 1
     8    3    8 2
     9    3    4 1
    10    4   30 1
    11    4    5 2
    12    5    6 1
    13    5   11 1
    14    6   10 2
    15    6    7 am
    16    7   34 1
    17    7    8 1
    18    8    9 1
    19    9   31 1
    20    9   32 1
    21    9   33 1
    22   11   12 1
    23   11   35 1
    24   12   13 1
    25   12   36 1
    26   12   37 1
    27   13   18 ar
    28   13   14 ar
    29   14   15 ar
    30   14   23 1
    31   15   16 ar
    32   15   38 1
    33   16   22 1
    34   16   17 ar
    35   17   18 ar
    36   17   19 1
    37   19   20 1
    38   19   39 1
    39   19   40 1
    40   20   21 1
    41   20   41 1
    42   20   42 1
    43   21   22 1
    44   21   43 1
    45   21   44 1
    46   22   45 1
    47   22   46 1
    48   23   24 1
    49   24   47 1
    50   24   48 1
    51   24   49 1
@<TRIPOS>MOLECULE
CHEMBL123639
   41    43     0     0     0
SMALL
USER_CHARGES

@<TRIPOS>ATOM
      1 C1         -0.0187    1.5258    0.0104 C.3       1 <0>        -0.1488
      2 C2          0.0021   -0.0041    0.0020 C.3       1 <0>        -0.0702
      3 C3          0.7074   -0.4901   -1.2379 C.2       1 <0>        -0.1300
      4 C4         -0.0010   -0.6214   -2.4413 C.2       1 <0>        -0.1376
      5 C5          0.6543   -1.0633   -3.5575 C.2       1 <0>         0.1055
      6 C6          2.0286   -1.3768   -3.4708 C.2       1 <0>         0.5135
      7 N1          2.6767   -1.2386   -2.2984 N.am      1 <0>        -0.5922
      8 C7          2.0242   -0.7940   -1.1909 C.2       1 <0>         0.0879
      9 C8          2.7767   -0.6437    0.1061 C.3       1 <0>        -0.1191
     10 O1          2.6283   -1.7729   -4.4575 O.2       1 <0>        -0.5519
     11 N2         -0.0295   -1.2038   -4.7716 N.pl3     1 <0>        -0.7223
     12 C9          0.6810   -1.6780   -5.9618 C.3       1 <0>         0.1894
     13 C10        -0.2742   -1.7397   -7.1257 C.ar      1 <0>         0.1386
     14 C11        -0.3429   -0.6607   -8.0045 C.ar      1 <0>        -0.1590
     15 C12        -1.2027   -0.6990   -9.0650 C.ar      1 <0>        -0.0570
     16 C13        -2.0002   -1.8469   -9.2322 C.ar      1 <0>        -0.1004
     17 C14        -2.9067   -1.9584  -10.2988 C.ar      1 <0>        -0.0980
     18 C15        -3.6601   -3.0851  -10.4265 C.ar      1 <0>        -0.1131
     19 C16        -3.5439   -4.1303   -9.5121 C.ar      1 <0>        -0.1007
     20 C17        -2.6760   -4.0555   -8.4667 C.ar      1 <0>        -0.0909
     21 C18        -1.8803   -2.9083   -8.3013 C.ar      1 <0>         0.1254
     22 N3         -1.0145   -2.8093   -7.2875 N.ar      1 <0>        -0.4562
     23 H1          1.0039    1.9031    0.0027 H         1 <0>         0.0545
     24 H2         -0.5459    1.8868   -0.8726 H         1 <0>         0.0558
     25 H3         -0.5289    1.8773    0.9072 H         1 <0>         0.0575
     26 H4          0.5293   -0.3651    0.8851 H         1 <0>         0.0741
     27 H5         -1.0205   -0.3814    0.0098 H         1 <0>         0.0731
     28 H6         -1.0519   -0.3766   -2.4859 H         1 <0>         0.1289
     29 H7          2.7255   -1.5774    0.6662 H         1 <0>         0.0817
     30 H8          3.8188   -0.4029   -0.1043 H         1 <0>         0.0713
     31 H9          2.3303    0.1579    0.6945 H         1 <0>         0.0903
     32 H10         3.6207   -1.4552   -2.2441 H         1 <0>         0.4155
     33 H11        -0.9735   -0.9872   -4.8244 H         1 <0>         0.4039
     34 H12         1.4954   -0.9924   -6.1960 H         1 <0>         0.0846
     35 H13         1.0862   -2.6718   -5.7712 H         1 <0>         0.0859
     36 H14         0.2830    0.2053   -7.8471 H         1 <0>         0.1395
     37 H15        -1.2692    0.1285   -9.7558 H         1 <0>         0.1418
     38 H16        -3.0059   -1.1548  -11.0136 H         1 <0>         0.1313
     39 H17        -4.3573   -3.1698  -11.2469 H         1 <0>         0.1294
     40 H18        -4.1527   -5.0138   -9.6350 H         1 <0>         0.1317
     41 H19        -2.5988   -4.8743   -7.7667 H         1 <0>         0.1363
@<TRIPOS>BOND
     1    1    2 1
     2    1   23 1
     3    1   24 1
     4    1   25 1
     5    2   26 1
     6    2   27 1
     7    2    3 1
     8    3    8 2
     9    3    4 1
    10    4   28 1
    11    4    5 2
    12    5    6 1
    13    5   11 1
    14    6   10 2
    15    6    7 am
    16    7   32 1
    17    7    8 1
    18    8    9 1
    19    9   29 1
    20    9   30 1
    21    9   31 1
    22   11   12 1
    23   11   33 1
    24   12   13 1
    25   12   34 1
    26   12   35 1
    27   13   22 ar
    28   13   14 ar
    29   14   15 ar
    30   14   36 1
    31   15   16 ar
    32   15   37 1
    33   16   21 ar
    34   16   17 ar
    35   17   18 ar
    36   17   38 1
    37   18   19 ar
    38   18   39 1
    39   19   20 ar
    40   19   40 1
    41   20   21 ar
    42   20   41 1
    43   21   22 ar
@<TRIPOS>MOLECULE
CHEMBL135380
   37    39     0     0     0
SMALL
USER_CHARGES

@<TRIPOS>ATOM
      1 C1         -0.0382    1.3667    0.0097 C.ar      1 <0>        -0.0930
      2 C2          1.1423    2.0859    0.0058 C.ar      1 <0>        -0.0930
      3 C3          2.3639    1.4311   -0.0082 C.ar      1 <0>        -0.0420
      4 C4          2.4008    0.0460   -0.0179 C.ar      1 <0>        -0.1407
      5 C5          1.1972   -0.6873   -0.0134 C.ar      1 <0>        -0.1407
      6 C6         -0.0167   -0.0192    0.0001 C.ar      1 <0>        -0.0420
      7 C7          1.5914   -2.1119   -0.0267 C.2       1 <0>         0.5766
      8 O1          0.8301   -3.0581   -0.0276 O.2       1 <0>        -0.4549
      9 N1          2.9346   -2.1848   -0.0379 N.am      1 <0>        -0.5737
     10 C8          3.4858   -0.9577   -0.0337 C.2       1 <0>         0.5766
     11 O2          4.6758   -0.7151   -0.0418 O.2       1 <0>        -0.4550
     12 C9          3.6968   -3.4359   -0.0524 C.3       1 <0>         0.1004
     13 C10         3.9505   -3.8617   -1.4999 C.3       1 <0>         0.1092
     14 N2          4.7126   -5.1128   -1.5144 N.pl3     1 <0>        -0.6801
     15 C11         5.0539   -5.6804   -2.6882 C.2       1 <0>         0.5233
     16 S1          4.5966   -4.9395   -4.1623 S.2       1 <0>        -0.4944
     17 N3          5.7550   -6.8314   -2.7016 N.pl3     1 <0>        -0.6161
     18 C12         6.0143   -7.4755   -3.9102 C.ar      1 <0>         0.3423
     19 C13         6.6442   -8.7152   -3.9085 C.ar      1 <0>        -0.1844
     20 C14         6.8954   -9.3441   -5.1148 C.ar      1 <0>        -0.0439
     21 C15         6.5061   -8.7085   -6.2873 C.ar      1 <0>        -0.1100
     22 C16         5.8845   -7.4767   -6.2141 C.ar      1 <0>         0.1373
     23 N4          5.6538   -6.9038   -5.0481 N.ar      1 <0>        -0.3976
     24 Cl1         6.7981   -9.4537   -7.8278 Cl        1 <0>        -0.0574
     25 H1         -0.9838    1.8883    0.0249 H         1 <0>         0.1448
     26 H2          1.1125    3.1655    0.0134 H         1 <0>         0.1448
     27 H3          3.2831    1.9982   -0.0119 H         1 <0>         0.1442
     28 H4         -0.9422   -0.5759    0.0035 H         1 <0>         0.1442
     29 H5          4.6499   -3.2865    0.4548 H         1 <0>         0.1058
     30 H6          3.1299   -4.2126    0.4608 H         1 <0>         0.1059
     31 H7          2.9973   -4.0110   -2.0071 H         1 <0>         0.0971
     32 H8          4.5174   -3.0849   -2.0131 H         1 <0>         0.0969
     33 H9          4.9717   -5.5326   -0.6792 H         1 <0>         0.3980
     34 H10         6.0792   -7.2115   -1.8701 H         1 <0>         0.4107
     35 H11         6.9337   -9.1806   -2.9780 H         1 <0>         0.1418
     36 H12         7.3834  -10.3072   -5.1444 H         1 <0>         0.1494
     37 H13         5.5799   -6.9783   -7.1226 H         1 <0>         0.1692
@<TRIPOS>BOND
     1    1    6 ar
     2    1    2 ar
     3    1   25 1
     4    2    3 ar
     5    2   26 1
     6    3    4 ar
     7    3   27 1
     8    4   10 1
     9    4    5 ar
    10    5    6 ar
    11    5    7 1
    12    6   28 1
    13    7    8 2
    14    7    9 am
    15    9   10 am
    16    9   12 1
    17   10   11 2
    18   12   13 1
    19   12   29 1
    20   12   30 1
    21   13   14 1
    22   13   31 1
    23   13   32 1
    24   14   15 1
    25   14   33 1
    26   15   16 2
    27   15   17 1
    28   17   18 1
    29   17   34 1
    30   18   23 ar
    31   18   19 ar
    32   19   20 ar
    33   19   35 1
    34   20   21 ar
    35   20   36 1
    36   21   22 ar
    37   21   24 1
    38   22   23 ar
    39   22   37 1
@<TRIPOS>MOLECULE
CHEMBL359410
   27    28     0     0     0
SMALL
USER_CHARGES

@<TRIPOS>ATOM
      1 C1         -0.0162    1.3409    0.0094 C.2       1 <0>        -0.2147
      2 C2          1.3313    1.7689   -0.0012 C.2       1 <0>        -0.1950
      3 C3          2.0923    0.6599   -0.0144 C.2       1 <0>        -0.0188
      4 O1          1.2819   -0.4111   -0.0124 O.3       1 <0>        -0.1741
      5 C4          0.0021   -0.0041    0.0020 C.2       1 <0>        -0.0321
      6 C5          3.5989    0.6249   -0.0294 C.3       1 <0>        -0.0500
      7 C6          4.1229    0.6057    1.4079 C.3       1 <0>         0.1271
      8 N1          5.5874    0.5717    1.3933 N.pl3     1 <0>        -0.6802
      9 C7          6.2726    0.5501    2.5537 C.2       1 <0>         0.5259
     10 S1          5.4315    0.5623    4.0448 S.2       1 <0>        -0.5046
     11 N2          7.6199    0.5188    2.5403 N.pl3     1 <0>        -0.5828
     12 C8          8.3263    0.4965    3.7366 C.2       1 <0>         0.2535
     13 N3          7.8545    0.4956    4.9647 N.2       1 <0>        -0.4552
     14 C9          8.6650    0.4722    6.0068 C.2       1 <0>         0.0514
     15 C10         9.9960    0.4493    5.7518 C.2       1 <0>        -0.2296
     16 S2          9.9930    0.4567    3.9664 S.3       1 <0>         0.0996
     17 H1         -0.8920    1.9726    0.0252 H         1 <0>         0.1506
     18 H2          1.6822    2.7903    0.0004 H         1 <0>         0.1495
     19 H3         -0.8653   -0.6475    0.0072 H         1 <0>         0.2052
     20 H4          3.9364   -0.2706   -0.5512 H         1 <0>         0.0902
     21 H5          3.9777    1.5089   -0.5424 H         1 <0>         0.1012
     22 H6          3.7854    1.5012    1.9297 H         1 <0>         0.0961
     23 H7          3.7441   -0.2783    1.9210 H         1 <0>         0.0947
     24 H8          6.0640    0.5648    0.5485 H         1 <0>         0.3977
     25 H9          8.0965    0.5119    1.6955 H         1 <0>         0.4166
     26 H10         8.2843    0.4716    7.0175 H         1 <0>         0.1778
     27 H11        10.8288    0.4282    6.4392 H         1 <0>         0.2000
@<TRIPOS>BOND
     1    1    5 2
     2    1    2 1
     3    1   17 1
     4    2    3 2
     5    2   18 1
     6    3    4 1
     7    3    6 1
     8    4    5 1
     9    5   19 1
    10    6    7 1
    11    6   20 1
    12    6   21 1
    13    7    8 1
    14    7   22 1
    15    7   23 1
    16    8    9 1
    17    8   24 1
    18    9   10 2
    19    9   11 1
    20   11   12 1
    21   11   25 1
    22   12   16 1
    23   12   13 2
    24   13   14 1
    25   14   15 2
    26   14   26 1
    27   15   16 1
    28   15   27 1
@<TRIPOS>MOLECULE
CHEMBL85574
   45    46     0     0     0
SMALL
USER_CHARGES

@<TRIPOS>ATOM
      1 C1         -0.0187    1.5258    0.0104 C.3       1 <0>        -0.1489
      2 C2          0.0021   -0.0041    0.0020 C.3       1 <0>        -0.0696
      3 C3         -1.4117   -0.5257    0.0127 C.2       1 <0>        -0.1280
      4 C4         -2.0964   -0.6700    1.2283 C.2       1 <0>        -0.1444
      5 C5         -3.3792   -1.1443    1.2205 C.2       1 <0>         0.1112
      6 C6         -3.9830   -1.4773   -0.0120 C.2       1 <0>         0.5135
      7 N1         -3.2953   -1.3259   -1.1599 N.am      1 <0>        -0.5928
      8 C7         -2.0214   -0.8491   -1.1501 C.2       1 <0>         0.0839
      9 C8         -1.2783   -0.6846   -2.4508 C.3       1 <0>        -0.1180
     10 O1         -5.1271   -1.9024   -0.0367 O.2       1 <0>        -0.5501
     11 N2         -4.0851   -1.2984    2.4201 N.pl3     1 <0>        -0.7188
     12 C9         -5.4588   -1.8073    2.4015 C.3       1 <0>         0.2014
     13 C10        -5.9877   -1.8773    3.8109 C.ar      1 <0>         0.0774
     14 C11        -5.8075   -3.0344    4.5551 C.ar      1 <0>         0.0947
     15 C12        -6.3008   -3.0853    5.8547 C.ar      1 <0>        -0.1679
     16 C13        -6.9557   -1.9710    6.3546 C.ar      1 <0>        -0.0894
     17 C14        -7.0963   -0.8544    5.5522 C.ar      1 <0>         0.0871
     18 N3         -6.6120   -0.8368    4.3257 N.ar      1 <0>        -0.4286
     19 C15        -7.8071    0.3614    6.0883 C.3       1 <0>        -0.1026
     20 C16        -7.5085   -1.9768    7.7565 C.3       1 <0>        -0.1169
     21 O2         -5.1586   -4.1029    4.0218 O.3       1 <0>        -0.3017
     22 C17        -5.0147   -5.2559    4.8537 C.3       1 <0>         0.0239
     23 H1          1.0039    1.9031    0.0027 H         1 <0>         0.0570
     24 H2         -0.5459    1.8868   -0.8726 H         1 <0>         0.0546
     25 H3         -0.5289    1.8773    0.9072 H         1 <0>         0.0559
     26 H4          0.5123   -0.3556   -0.8948 H         1 <0>         0.0736
     27 H5          0.5293   -0.3651    0.8851 H         1 <0>         0.0724
     28 H6         -1.6159   -0.4098    2.1599 H         1 <0>         0.1275
     29 H7         -0.7443   -1.6060   -2.6831 H         1 <0>         0.0806
     30 H8         -1.9873   -0.4644   -3.2489 H         1 <0>         0.0707
     31 H9         -0.5659    0.1354   -2.3610 H         1 <0>         0.0896
     32 H10        -3.7145   -1.5560   -2.0038 H         1 <0>         0.4148
     33 H11        -3.6646   -1.0682    3.2633 H         1 <0>         0.4017
     34 H12        -6.0857   -1.1392    1.8109 H         1 <0>         0.0829
     35 H13        -5.4713   -2.8032    1.9588 H         1 <0>         0.0862
     36 H14        -6.1767   -3.9716    6.4592 H         1 <0>         0.1415
     37 H15        -7.0857    1.0208    6.5708 H         1 <0>         0.0769
     38 H16        -8.2910    0.8908    5.2675 H         1 <0>         0.0769
     39 H17        -8.5589    0.0521    6.8144 H         1 <0>         0.0777
     40 H18        -6.7490   -1.6121    8.4481 H         1 <0>         0.0780
     41 H19        -8.3843   -1.3297    7.8044 H         1 <0>         0.0789
     42 H20        -7.7921   -2.9928    8.0310 H         1 <0>         0.0695
     43 H21        -6.0004   -5.6239    5.1382 H         1 <0>         0.0569
     44 H22        -4.4802   -6.0333    4.3078 H         1 <0>         0.1045
     45 H23        -4.4537   -4.9898    5.7495 H         1 <0>         0.0564
@<TRIPOS>BOND
     1    1    2 1
     2    1   23 1
     3    1   24 1
     4    1   25 1
     5    2   26 1
     6    2   27 1
     7    2    3 1
     8    3    8 2
     9    3    4 1
    10    4   28 1
    11    4    5 2
    12    5    6 1
    13    5   11 1
    14    6   10 2
    15    6    7 am
    16    7   32 1
    17    7    8 1
    18    8    9 1
    19    9   29 1
    20    9   30 1
    21    9   31 1
    22   11   12 1
    23   11   33 1
    24   12   13 1
    25   12   34 1
    26   12   35 1
    27   13   18 ar
    28   13   14 ar
    29   14   15 ar
    30   14   21 1
    31   15   16 ar
    32   15   36 1
    33   16   17 ar
    34   16   20 1
    35   17   18 ar
    36   17   19 1
    37   19   37 1
    38   19   38 1
    39   19   39 1
    40   20   40 1
    41   20   41 1
    42   20   42 1
    43   21   22 1
    44   22   43 1
    45   22   44 1
    46   22   45 1
@<TRIPOS>MOLECULE
CHEMBL134630
   31    32     0     0     0
SMALL
USER_CHARGES

@<TRIPOS>ATOM
      1 C1          1.0106   -0.5272   -0.6175 C.ar      1 <0>         0.0261
      2 C2          2.2300    0.1257   -0.6595 C.ar      1 <0>        -0.1175
      3 C3          2.3735    1.3344    0.0120 C.ar      1 <0>         0.3985
      4 N1          1.3598    1.8573    0.6838 N.ar      1 <0>        -0.4212
      5 C4          0.1858    1.2585    0.7421 C.ar      1 <0>         0.1621
      6 C5         -0.0280    0.0544    0.0982 C.ar      1 <0>        -0.0694
      7 Cl1        -1.5782   -0.7225    0.1827 Cl        1 <0>         0.0346
      8 N2          3.5967    2.0019   -0.0220 N.pl3     1 <0>        -0.6410
      9 C6          3.6285    3.3459   -0.1173 C.2       1 <0>         0.5319
     10 N3          4.8095    3.9860   -0.2271 N.pl3     1 <0>        -0.6318
     11 C7          4.8441    5.4469   -0.3306 C.3       1 <0>         0.1089
     12 C8          6.2960    5.9159   -0.4436 C.3       1 <0>        -0.0487
     13 C9          6.3316    7.4188   -0.5501 C.2       1 <0>        -0.0564
     14 C10         6.4157    8.2798    0.4815 C.2       1 <0>         0.0307
     15 C11         6.4196    9.5820   -0.0716 C.2       1 <0>        -0.2364
     16 C12         6.3378    9.4390   -1.4067 C.2       1 <0>         0.0107
     17 O1          6.2906    8.1276   -1.6918 O.3       1 <0>        -0.1546
     18 F1          6.4829    7.9615    1.7928 F         1 <0>        -0.1142
     19 S1          2.1688    4.2402   -0.0988 S.2       1 <0>        -0.5552
     20 H1          0.8684   -1.4654   -1.1332 H         1 <0>         0.1935
     21 H2          3.0592   -0.2983   -1.2063 H         1 <0>         0.1963
     22 H3         -0.6184    1.7150    1.3000 H         1 <0>         0.2217
     23 H4          4.2908    5.7616   -1.2154 H         1 <0>         0.1119
     24 H5          4.3888    5.8850    0.5575 H         1 <0>         0.1104
     25 H6          6.8494    5.6012    0.4412 H         1 <0>         0.1068
     26 H7          6.7514    5.4779   -1.3317 H         1 <0>         0.1021
     27 H8          6.4770   10.5126    0.4737 H         1 <0>         0.1675
     28 H9          6.3175   10.2429   -2.1277 H         1 <0>         0.2213
     29 H10         5.6366    3.4793   -0.2376 H         1 <0>         0.4153
     30 H11         1.4835    2.7016    1.1450 H         1 <0>         0.4556
     31 H12         4.4250    1.4991    0.0229 H         1 <0>         0.4408
@<TRIPOS>BOND
     1    1    6 ar
     2    1    2 ar
     3    1   20 1
     4    2    3 ar
     5    2   21 1
     6    3    4 ar
     7    3    8 1
     8    4    5 ar
     9    4   30 1
    10    5    6 ar
    11    5   22 1
    12    6    7 1
    13    8    9 1
    14    8   31 1
    15    9   10 1
    16    9   19 2
    17   10   11 1
    18   10   29 1
    19   11   12 1
    20   11   23 1
    21   11   24 1
    22   12   13 1
    23   12   25 1
    24   12   26 1
    25   13   17 1
    26   13   14 2
    27   14   15 1
    28   14   18 1
    29   15   16 2
    30   15   27 1
    31   16   17 1
    32   16   28 1
@<TRIPOS>MOLECULE
CHEMBL134630__1
   29    30     0     0     0
SMALL
USER_CHARGES

@<TRIPOS>ATOM
      1 C1         -0.0168    1.3862    0.0097 C.ar      1 <0>        -0.0665
      2 C2          1.1875    2.0632    0.0018 C.ar      1 <0>        -0.1848
      3 C3          2.3782    1.3305   -0.0135 C.ar      1 <0>         0.3518
      4 N1          2.3519    0.0010   -0.0204 N.ar      1 <0>        -0.4081
      5 C4          1.2147   -0.6668   -0.0131 C.ar      1 <0>         0.1252
      6 C5          0.0021   -0.0041    0.0020 C.ar      1 <0>        -0.1536
      7 Cl1        -1.4850   -0.8997    0.0120 Cl        1 <0>        -0.1109
      8 N2          3.5762    1.9845   -0.0219 N.2       1 <0>        -0.6405
      9 C6          4.6996    1.2997   -0.0363 C.2       1 <0>         0.5571
     10 N3          5.9036    1.9570   -0.0447 N.pl3     1 <0>        -0.7126
     11 C7          7.1544    1.1944   -0.0608 C.3       1 <0>         0.1465
     12 C8          8.3407    2.1606   -0.0674 C.3       1 <0>        -0.0528
     13 C9          9.6274    1.3762   -0.0839 C.2       1 <0>        -0.0177
     14 C10        10.2920    0.9763   -1.1844 C.2       1 <0>         0.0058
     15 C11        11.4375    0.2756   -0.7386 C.2       1 <0>        -0.2342
     16 C12        11.4044    0.2893    0.6062 C.2       1 <0>        -0.0148
     17 O1         10.3098    0.9616    0.9978 O.3       1 <0>        -0.1550
     18 F1          9.9338    1.2005   -2.4676 F         1 <0>        -0.1170
     19 S1          4.6574   -0.4618   -0.0448 S.3       1 <0>        -0.7975
     20 H1         -0.9525    1.9252    0.0259 H         1 <0>         0.1236
     21 H2          1.2089    3.1429    0.0070 H         1 <0>         0.1234
     22 H3          1.2313   -1.7467   -0.0194 H         1 <0>         0.1383
     23 H4          7.2058    0.5621    0.8256 H         1 <0>         0.0727
     24 H5          7.1884    0.5711   -0.9543 H         1 <0>         0.0717
     25 H6          8.2893    2.7929   -0.9538 H         1 <0>         0.0986
     26 H7          8.3067    2.7840    0.8261 H         1 <0>         0.0914
     27 H8         12.1935   -0.1827   -1.3590 H         1 <0>         0.1596
     28 H9         12.1364   -0.1609    1.2604 H         1 <0>         0.2128
     29 H10         5.9268    2.9267   -0.0401 H         1 <0>         0.3871
@<TRIPOS>BOND
     1    1    6 ar
     2    1    2 ar
     3    1   20 1
     4    2    3 ar
     5    2   21 1
     6    3    4 ar
     7    3    8 1
     8    4    5 ar
     9    5    6 ar
    10    5   22 1
    11    6    7 1
    12    8    9 2
    13    9   10 1
    14    9   19 1
    15   10   11 1
    16   10   29 1
    17   11   12 1
    18   11   23 1
    19   11   24 1
    20   12   13 1
    21   12   25 1
    22   12   26 1
    23   13   17 1
    24   13   14 2
    25   14   15 1
    26   14   18 1
    27   15   16 2
    28   15   27 1
    29   16   17 1
    30   16   28 1
@<TRIPOS>MOLECULE
CHEMBL134630__2
   30    31     0     0     0
SMALL
USER_CHARGES

@<TRIPOS>ATOM
      1 C1          1.1335   -0.7127   -0.0703 C.ar      1 <0>        -0.0421
      2 C2          2.3530   -0.0587   -0.0581 C.ar      1 <0>        -0.1883
      3 C3          2.3750    1.3310   -0.0350 C.ar      1 <0>         0.3506
      4 N1          1.2467    2.0234   -0.0247 N.ar      1 <0>        -0.4065
      5 C4          0.0694    1.4284   -0.0358 C.ar      1 <0>         0.1391
      6 C5         -0.0274    0.0499   -0.0589 C.ar      1 <0>        -0.1136
      7 Cl1        -1.5831   -0.7203   -0.0734 Cl        1 <0>        -0.0581
      8 N2          3.5967    2.0019   -0.0220 N.pl3     1 <0>        -0.6281
      9 C6          3.6290    3.3672   -0.1188 C.cat     1 <0>         0.4972
     10 N3          4.8263    4.0160   -0.2301 N.pl3     1 <0>        -0.6942
     11 C7          4.8609    5.4769   -0.3337 C.3       1 <0>         0.1299
     12 C8          6.3128    5.9460   -0.4466 C.3       1 <0>        -0.0498
     13 C9          6.3484    7.4488   -0.5531 C.2       1 <0>        -0.0393
     14 C10         6.4325    8.3098    0.4785 C.2       1 <0>         0.0197
     15 C11         6.4364    9.6121   -0.0746 C.2       1 <0>        -0.2354
     16 C12         6.3545    9.4691   -1.4097 C.2       1 <0>        -0.0008
     17 O1          6.3073    8.1577   -1.6948 O.3       1 <0>        -0.1549
     18 F1          6.4997    7.9915    1.7898 F         1 <0>        -0.1154
     19 S1          2.2136    4.2342   -0.1008 S.3       1 <0>        -0.4394
     20 H1          1.0855   -1.7914   -0.0927 H         1 <0>         0.1488
     21 H2          3.2753   -0.6205   -0.0661 H         1 <0>         0.1413
     22 H3         -0.8301    2.0260   -0.0265 H         1 <0>         0.1692
     23 H4          4.4240    1.5015    0.0556 H         1 <0>         0.4091
     24 H5          4.3075    5.7916   -1.2185 H         1 <0>         0.0936
     25 H6          4.4055    5.9150    0.5545 H         1 <0>         0.0920
     26 H7          6.8662    5.6313    0.4382 H         1 <0>         0.1024
     27 H8          6.7681    5.5079   -1.3348 H         1 <0>         0.0964
     28 H9          6.4937   10.5426    0.4706 H         1 <0>         0.1639
     29 H10         6.3343   10.2730   -2.1307 H         1 <0>         0.2175
     30 H11         5.6534    3.5093   -0.2406 H         1 <0>         0.3953
@<TRIPOS>BOND
     1    1    6 ar
     2    1    2 ar
     3    1   20 1
     4    2    3 ar
     5    2   21 1
     6    3    4 ar
     7    3    8 1
     8    4    5 ar
     9    5    6 ar
    10    5   22 1
    11    6    7 1
    12    8    9 1
    13    8   23 1
    14    9   10 2
    15    9   19 1
    16   10   11 1
    17   10   30 1
    18   11   12 1
    19   11   24 1
    20   11   25 1
    21   12   13 1
    22   12   26 1
    23   12   27 1
    24   13   17 1
    25   13   14 2
    26   14   15 1
    27   14   18 1
    28   15   16 2
    29   15   28 1
    30   16   17 1
    31   16   29 1
@<TRIPOS>MOLECULE
CHEMBL337029
   54    58     0     0     0
SMALL
USER_CHARGES

@<TRIPOS>ATOM
      1 C1         -0.0070    1.2904   -0.3190 C.3       1 <0>        -0.1439
      2 C2          0.0330   -0.2208   -0.0832 C.3       1 <0>        -0.1563
      3 H1          0.5732   -0.7056   -0.8963 H         1 <0>         0.0914
      4 C3         -1.3972   -0.7714   -0.0112 C.3       1 <0>         0.0898
      5 H2         -1.9079   -0.3551    0.8571 H         1 <0>         0.0824
      6 O1         -1.3255   -2.1924    0.1081 O.3       1 <0>        -0.2944
      7 C4         -0.4970   -2.7120    1.0491 C.ar      1 <0>         0.2495
      8 C5         -0.6788   -4.0505    1.4332 C.ar      1 <0>        -0.1948
      9 C6          0.1522   -4.6312    2.3924 C.ar      1 <0>         0.2418
     10 C7          1.1695   -3.8673    2.9706 C.ar      1 <0>        -0.2088
     11 C8          2.0656   -4.4422    3.9855 C.2       1 <0>         0.0960
     12 C9          3.0482   -3.6212    4.5107 C.2       1 <0>        -0.2581
     13 C10         3.1491   -2.2961    4.0616 C.2       1 <0>         0.5058
     14 O2          4.0182   -1.5834    4.5324 O.2       1 <0>        -0.4602
     15 O3          2.3288   -1.7836    3.1363 O.3       1 <0>        -0.2394
     16 C11         1.3475   -2.5276    2.5839 C.ar      1 <0>         0.2375
     17 C12         0.5088   -1.9609    1.6265 C.ar      1 <0>        -0.2634
     18 C13         0.7283   -0.5174    1.2476 C.3       1 <0>         0.1707
     19 H3          0.3158    0.1273    2.0237 H         1 <0>         0.1116
     20 O4          2.1292   -0.2668    1.1180 O.3       1 <0>        -0.5317
     21 C14         1.9214   -5.8465    4.4291 C.ar      1 <0>        -0.0588
     22 C15         2.1530   -6.8915    3.5335 C.ar      1 <0>        -0.0619
     23 C16         2.0173   -8.1986    3.9535 C.ar      1 <0>        -0.1187
     24 C17         1.6521   -8.4745    5.2592 C.ar      1 <0>        -0.1065
     25 C18         1.4211   -7.4430    6.1520 C.ar      1 <0>        -0.1214
     26 C19         1.5589   -6.1317    5.7462 C.ar      1 <0>        -0.0932
     27 O5         -0.0488   -5.9260    2.7396 O.3       1 <0>        -0.2735
     28 C20        -1.3964   -6.3995    2.7338 C.3       1 <0>         0.1461
     29 C21        -2.0886   -6.0059    1.4555 C.2       1 <0>        -0.1948
     30 C22        -1.7490   -4.8770    0.8355 C.2       1 <0>        -0.0717
     31 C23        -2.1486   -5.7964    3.9218 C.3       1 <0>        -0.1719
     32 C24        -1.3961   -7.9244    2.8590 C.3       1 <0>        -0.1359
     33 C25        -2.1582   -0.3978   -1.2849 C.3       1 <0>        -0.1487
     34 H4          1.0106    1.6790   -0.3588 H         1 <0>         0.0713
     35 H5         -0.5123    1.4976   -1.2623 H         1 <0>         0.0661
     36 H6         -0.5479    1.7712    0.4961 H         1 <0>         0.0609
     37 H7          3.7304   -3.9969    5.2590 H         1 <0>         0.1660
     38 H8          2.5513   -0.7558    0.3984 H         1 <0>         0.3740
     39 H9          2.4374   -6.6775    2.5139 H         1 <0>         0.1200
     40 H10         2.1963   -9.0083    3.2615 H         1 <0>         0.1246
     41 H11         1.5465   -9.4995    5.5829 H         1 <0>         0.1232
     42 H12         1.1359   -7.6650    7.1698 H         1 <0>         0.1254
     43 H13         1.3824   -5.3275    6.4452 H         1 <0>         0.1233
     44 H14        -2.8602   -6.6384    1.0419 H         1 <0>         0.1353
     45 H15        -2.2412   -4.5741   -0.0768 H         1 <0>         0.1386
     46 H16        -2.1432   -4.7094    3.8412 H         1 <0>         0.0588
     47 H17        -3.1777   -6.1557    3.9206 H         1 <0>         0.0772
     48 H18        -1.6608   -6.0943    4.8499 H         1 <0>         0.0709
     49 H19        -0.9119   -8.2123    3.7921 H         1 <0>         0.0723
     50 H20        -2.4232   -8.2895    2.8549 H         1 <0>         0.0808
     51 H21        -0.8532   -8.3578    2.0191 H         1 <0>         0.0685
     52 H22        -1.6500   -0.8240   -2.1500 H         1 <0>         0.0697
     53 H23        -3.1735   -0.7907   -1.2300 H         1 <0>         0.0708
     54 H24        -2.1932    0.6872   -1.3822 H         1 <0>         0.0877
@<TRIPOS>BOND
     1    1    2 1
     2    1   34 1
     3    1   35 1
     4    1   36 1
     5    2    3 1
     6    2   18 1
     7    2    4 1
     8    4    5 1
     9    4    6 1
    10    4   33 1
    11    6    7 1
    12    7   17 ar
    13    7    8 ar
    14    8   30 1
    15    8    9 ar
    16    9   10 ar
    17    9   27 1
    18   10   16 ar
    19   10   11 1
    20   11   12 2
    21   11   21 1
    22   12   13 1
    23   12   37 1
    24   13   14 2
    25   13   15 1
    26   15   16 1
    27   16   17 ar
    28   17   18 1
    29   18   19 1
    30   18   20 1
    31   20   38 1
    32   21   26 ar
    33   21   22 ar
    34   22   23 ar
    35   22   39 1
    36   23   24 ar
    37   23   40 1
    38   24   25 ar
    39   24   41 1
    40   25   26 ar
    41   25   42 1
    42   26   43 1
    43   27   28 1
    44   28   29 1
    45   28   31 1
    46   28   32 1
    47   29   30 2
    48   29   44 1
    49   30   45 1
    50   31   46 1
    51   31   47 1
    52   31   48 1
    53   32   49 1
    54   32   50 1
    55   32   51 1
    56   33   52 1
    57   33   53 1
    58   33   54 1
@<TRIPOS>MOLECULE
CHEMBL131972
   40    42     0     0     0
SMALL
USER_CHARGES

@<TRIPOS>ATOM
      1 C1         -2.0154   -5.0685   -2.0699 C.3       1 <0>        -0.1540
      2 C2         -1.2210   -4.0424   -1.2593 C.3       1 <0>         0.0510
      3 O1         -0.5865   -4.6941   -0.1571 O.3       1 <0>        -0.3038
      4 C3          0.1646   -3.9184    0.6694 C.ar      1 <0>         0.1173
      5 C4          0.2831   -2.5583    0.4276 C.ar      1 <0>        -0.1792
      6 C5          1.0463   -1.7713    1.2687 C.ar      1 <0>        -0.0642
      7 C6          1.6932   -2.3389    2.3522 C.ar      1 <0>        -0.0458
      8 C7          1.5776   -3.6958    2.5964 C.ar      1 <0>        -0.0285
      9 C8          0.8096   -4.4864    1.7606 C.ar      1 <0>         0.0544
     10 F1          0.6919   -5.8105    2.0018 F         1 <0>        -0.1139
     11 C9          2.2840   -4.3116    3.7766 C.3       1 <0>        -0.1390
     12 C10         2.4292   -5.8345    3.7971 C.3       1 <0>        -0.1995
     13 C11         1.4445   -5.1472    4.7451 C.3       1 <0>         0.1245
     14 N1          0.0156   -5.2873    4.4542 N.am      1 <0>        -0.7112
     15 C12        -0.8530   -5.5465    5.4517 C.2       1 <0>         0.7008
     16 O2         -0.4506   -5.6639    6.5930 O.2       1 <0>        -0.5172
     17 N2         -2.1676   -5.6754    5.1841 N.am      1 <0>        -0.6609
     18 C13        -3.0805   -5.8212    6.2278 C.ar      1 <0>         0.3354
     19 C14        -4.4216   -6.0808    5.9532 C.ar      1 <0>        -0.1487
     20 C15        -5.2895   -6.2179    7.0271 C.ar      1 <0>        -0.0088
     21 C16        -4.7678   -6.0878    8.3081 C.ar      1 <0>         0.0208
     22 N3         -3.4838   -5.8417    8.4743 N.ar      1 <0>        -0.1894
     23 N4         -2.6756   -5.7190    7.4849 N.ar      1 <0>        -0.2243
     24 Cl1        -6.9767   -6.5415    6.7775 Cl        1 <0>        -0.0233
     25 Cl2         2.6516   -1.3470    3.4064 Cl        1 <0>        -0.0440
     26 H1         -2.7726   -5.5266   -1.4336 H         1 <0>         0.0682
     27 H2         -2.4994   -4.5715   -2.9106 H         1 <0>         0.0833
     28 H3         -1.3400   -5.8385   -2.4429 H         1 <0>         0.0691
     29 H4         -0.4638   -3.5843   -1.8955 H         1 <0>         0.0684
     30 H5         -1.8964   -3.2725   -0.8863 H         1 <0>         0.0678
     31 H6         -0.2207   -2.1142   -0.4182 H         1 <0>         0.1502
     32 H7          1.1383   -0.7119    1.0800 H         1 <0>         0.1480
     33 H8          3.0991   -3.7223    4.1965 H         1 <0>         0.1383
     34 H9          2.0139   -6.3911    2.9570 H         1 <0>         0.1318
     35 H10         3.3402   -6.2475    4.2305 H         1 <0>         0.1127
     36 H11         1.7076   -5.1078    5.8022 H         1 <0>         0.1533
     37 H12        -0.3055   -5.1937    3.5437 H         1 <0>         0.3969
     38 H13        -2.4786   -5.6668    4.2653 H         1 <0>         0.4170
     39 H14        -4.7745   -6.1721    4.9366 H         1 <0>         0.1625
     40 H15        -5.4142   -6.1881    9.1675 H         1 <0>         0.1841
@<TRIPOS>BOND
     1    1    2 1
     2    1   26 1
     3    1   27 1
     4    1   28 1
     5    2    3 1
     6    2   29 1
     7    2   30 1
     8    3    4 1
     9    4    9 ar
    10    4    5 ar
    11    5    6 ar
    12    5   31 1
    13    6    7 ar
    14    6   32 1
    15    7    8 ar
    16    7   25 1
    17    8    9 ar
    18    8   11 1
    19    9   10 1
    20   11   13 1
    21   11   12 1
    22   11   33 1
    23   12   13 1
    24   12   34 1
    25   12   35 1
    26   13   14 1
    27   13   36 1
    28   14   15 am
    29   14   37 1
    30   15   16 2
    31   15   17 am
    32   17   18 1
    33   17   38 1
    34   18   23 ar
    35   18   19 ar
    36   19   20 ar
    37   19   39 1
    38   20   21 ar
    39   20   24 1
    40   21   22 ar
    41   21   40 1
    42   22   23 ar
@<TRIPOS>MOLECULE
CHEMBL131972__1
   40    42     0     0     0
SMALL
USER_CHARGES

@<TRIPOS>ATOM
      1 C1         -2.1832   -5.0636   -1.9637 C.3       1 <0>        -0.1541
      2 C2         -1.3217   -4.0461   -1.2131 C.3       1 <0>         0.0515
      3 O1         -0.6960   -4.6828   -0.0972 O.3       1 <0>        -0.3028
      4 C3          0.1103   -3.9124    0.6808 C.ar      1 <0>         0.1142
      5 C4          0.2903   -2.5711    0.3795 C.ar      1 <0>        -0.1763
      6 C5          1.1096   -1.7894    1.1714 C.ar      1 <0>        -0.0707
      7 C6          1.7513   -2.3436    2.2648 C.ar      1 <0>        -0.0444
      8 C7          1.5745   -3.6818    2.5683 C.ar      1 <0>        -0.0360
      9 C8          0.7503   -4.4667    1.7820 C.ar      1 <0>         0.0797
     10 F1          0.5729   -5.7722    2.0811 F         1 <0>        -0.1147
     11 C9          2.2753   -4.2832    3.7592 C.3       1 <0>        -0.1342
     12 C10         2.4054   -5.8069    3.8072 C.3       1 <0>        -0.1917
     13 C11         1.4281   -5.0927    4.7430 C.3       1 <0>         0.1229
     14 N1          1.7831   -5.0176    6.1624 N.am      1 <0>        -0.7084
     15 C12         0.8492   -5.2573    7.1041 C.2       1 <0>         0.6998
     16 O2         -0.2878   -5.5358    6.7757 O.2       1 <0>        -0.5149
     17 N2          1.1758   -5.1883    8.4099 N.am      1 <0>        -0.6602
     18 C13         0.2430   -5.5482    9.3818 C.ar      1 <0>         0.3342
     19 C14         0.5318   -5.3614   10.7320 C.ar      1 <0>        -0.1479
     20 C15        -0.4300   -5.7354   11.6594 C.ar      1 <0>        -0.0092
     21 C16        -1.6201   -6.2723   11.1845 C.ar      1 <0>         0.0215
     22 N3         -1.8079   -6.4129    9.8877 N.ar      1 <0>        -0.1897
     23 N4         -0.9238   -6.0641    9.0252 N.ar      1 <0>        -0.2246
     24 Cl1        -0.1544   -5.5388   13.3621 Cl        1 <0>        -0.0229
     25 Cl2         2.7803   -1.3585    3.2570 Cl        1 <0>        -0.0523
     26 H1         -2.9480   -5.4566   -1.2939 H         1 <0>         0.0691
     27 H2         -2.6604   -4.5779   -2.8149 H         1 <0>         0.0824
     28 H3         -1.5548   -5.8811   -2.3172 H         1 <0>         0.0685
     29 H4         -0.5569   -3.6531   -1.8830 H         1 <0>         0.0671
     30 H5         -1.9500   -3.2286   -0.8596 H         1 <0>         0.0673
     31 H6         -0.2094   -2.1374   -0.4741 H         1 <0>         0.1491
     32 H7          1.2496   -0.7446    0.9363 H         1 <0>         0.1463
     33 H8          3.0965   -3.6945    4.1680 H         1 <0>         0.1305
     34 H9          1.9841   -6.3744    2.9774 H         1 <0>         0.1346
     35 H10         3.3125   -6.2209    4.2476 H         1 <0>         0.1052
     36 H11         0.3638   -5.1903    4.5289 H         1 <0>         0.1458
     37 H12         2.6902   -4.7955    6.4243 H         1 <0>         0.4002
     38 H13         2.0597   -4.8883    8.6736 H         1 <0>         0.4180
     39 H14         1.4747   -4.9391   11.0467 H         1 <0>         0.1630
     40 H15        -2.3910   -6.5747   11.8779 H         1 <0>         0.1841
@<TRIPOS>BOND
     1    1    2 1
     2    1   26 1
     3    1   27 1
     4    1   28 1
     5    2    3 1
     6    2   29 1
     7    2   30 1
     8    3    4 1
     9    4    9 ar
    10    4    5 ar
    11    5    6 ar
    12    5   31 1
    13    6    7 ar
    14    6   32 1
    15    7    8 ar
    16    7   25 1
    17    8    9 ar
    18    8   11 1
    19    9   10 1
    20   11   13 1
    21   11   12 1
    22   11   33 1
    23   12   13 1
    24   12   34 1
    25   12   35 1
    26   13   14 1
    27   13   36 1
    28   14   15 am
    29   14   37 1
    30   15   16 2
    31   15   17 am
    32   17   18 1
    33   17   38 1
    34   18   23 ar
    35   18   19 ar
    36   19   20 ar
    37   19   39 1
    38   20   21 ar
    39   20   24 1
    40   21   22 ar
    41   21   40 1
    42   22   23 ar
@<TRIPOS>MOLECULE
CHEMBL131972__2
   40    42     0     0     0
SMALL
USER_CHARGES

@<TRIPOS>ATOM
      1 C1         -1.1111   -5.3571   -2.6263 C.3       1 <0>        -0.1541
      2 C2         -0.6707   -4.2761   -1.6372 C.3       1 <0>         0.0515
      3 O1         -0.0132   -4.8873   -0.5253 O.3       1 <0>        -0.3029
      4 C3          0.4437   -4.0602    0.4525 C.ar      1 <0>         0.1143
      5 C4          0.2575   -2.6903    0.3463 C.ar      1 <0>        -0.1762
      6 C5          0.7219   -1.8512    1.3411 C.ar      1 <0>        -0.0705
      7 C6          1.3731   -2.3761    2.4432 C.ar      1 <0>        -0.0443
      8 C7          1.5612   -3.7424    2.5524 C.ar      1 <0>        -0.0358
      9 C8          1.0925   -4.5868    1.5620 C.ar      1 <0>         0.0797
     10 F1          1.2709   -5.9216    1.6709 F         1 <0>        -0.1145
     11 C9          2.2717   -4.3114    3.7535 C.3       1 <0>        -0.1336
     12 C10         2.0912   -5.8035    4.0398 C.3       1 <0>        -0.1943
     13 C11         3.4242   -5.2845    3.4970 C.3       1 <0>         0.1230
     14 N1          4.5610   -5.2449    4.4202 N.am      1 <0>        -0.7085
     15 C12         5.7754   -5.6638    4.0122 C.2       1 <0>         0.6996
     16 O2          5.9273   -6.0745    2.8781 O.2       1 <0>        -0.5146
     17 N2          6.8212   -5.6274    4.8615 N.am      1 <0>        -0.6601
     18 C13         8.0978   -5.9601    4.4101 C.ar      1 <0>         0.3341
     19 C14         9.1611   -6.0304    5.3078 C.ar      1 <0>        -0.1480
     20 C15        10.4113   -6.3661    4.8083 C.ar      1 <0>        -0.0092
     21 C16        10.5250   -6.6111    3.4455 C.ar      1 <0>         0.0214
     22 N3          9.4635   -6.5214    2.6696 N.ar      1 <0>        -0.1898
     23 N4          8.3038   -6.2162    3.1269 N.ar      1 <0>        -0.2245
     24 Cl1        11.7921   -6.4762    5.8548 Cl        1 <0>        -0.0229
     25 Cl2         1.9557   -1.3186    3.6907 Cl        1 <0>        -0.0522
     26 H1         -1.7971   -6.0446   -2.1316 H         1 <0>         0.0684
     27 H2         -1.6127   -4.8909   -3.4744 H         1 <0>         0.0824
     28 H3         -0.2373   -5.9058   -2.9778 H         1 <0>         0.0691
     29 H4          0.0152   -3.5886   -2.1319 H         1 <0>         0.0675
     30 H5         -1.5446   -3.7274   -1.2857 H         1 <0>         0.0671
     31 H6         -0.2501   -2.2793   -0.5138 H         1 <0>         0.1492
     32 H7          0.5767   -0.7842    1.2580 H         1 <0>         0.1463
     33 H8          2.3595   -3.6415    4.6088 H         1 <0>         0.1304
     34 H9          2.0600   -6.1155    5.0837 H         1 <0>         0.1048
     35 H10         1.4585   -6.3736    3.3595 H         1 <0>         0.1362
     36 H11         3.6685   -5.5132    2.4597 H         1 <0>         0.1456
     37 H12         4.4398   -4.9173    5.3251 H         1 <0>         0.4002
     38 H13         6.6858   -5.3696    5.7868 H         1 <0>         0.4180
     39 H14         9.0168   -5.8295    6.3591 H         1 <0>         0.1630
     40 H15        11.4829   -6.8746    3.0221 H         1 <0>         0.1841
@<TRIPOS>BOND
     1    1    2 1
     2    1   26 1
     3    1   27 1
     4    1   28 1
     5    2    3 1
     6    2   29 1
     7    2   30 1
     8    3    4 1
     9    4    9 ar
    10    4    5 ar
    11    5    6 ar
    12    5   31 1
    13    6    7 ar
    14    6   32 1
    15    7    8 ar
    16    7   25 1
    17    8    9 ar
    18    8   11 1
    19    9   10 1
    20   11   13 1
    21   11   12 1
    22   11   33 1
    23   12   13 1
    24   12   34 1
    25   12   35 1
    26   13   14 1
    27   13   36 1
    28   14   15 am
    29   14   37 1
    30   15   16 2
    31   15   17 am
    32   17   18 1
    33   17   38 1
    34   18   23 ar
    35   18   19 ar
    36   19   20 ar
    37   19   39 1
    38   20   21 ar
    39   20   24 1
    40   21   22 ar
    41   21   40 1
    42   22   23 ar
@<TRIPOS>MOLECULE
CHEMBL131972__3
   40    42     0     0     0
SMALL
USER_CHARGES

@<TRIPOS>ATOM
      1 C1         -1.2524   -5.3493   -2.5456 C.3       1 <0>        -0.1542
      2 C2         -0.7584   -4.2643   -1.5867 C.3       1 <0>         0.0511
      3 O1         -0.1019   -4.8750   -0.4740 O.3       1 <0>        -0.3038
      4 C3          0.3999   -4.0444    0.4786 C.ar      1 <0>         0.1168
      5 C4          0.2579   -2.6715    0.3474 C.ar      1 <0>        -0.1790
      6 C5          0.7679   -1.8287    1.3165 C.ar      1 <0>        -0.0646
      7 C6          1.4208   -2.3532    2.4179 C.ar      1 <0>        -0.0457
      8 C7          1.5648   -3.7227    2.5520 C.ar      1 <0>        -0.0290
      9 C8          1.0504   -4.5704    1.5874 C.ar      1 <0>         0.0552
     10 F1          1.1859   -5.9080    1.7207 F         1 <0>        -0.1135
     11 C9          2.2773   -4.2913    3.7521 C.3       1 <0>        -0.1395
     12 C10         2.0987   -5.7837    4.0381 C.3       1 <0>        -0.2002
     13 C11         3.4306   -5.2630    3.4942 C.3       1 <0>         0.1245
     14 N1          3.7578   -5.5694    2.0994 N.am      1 <0>        -0.7109
     15 C12         5.0010   -5.9744    1.7723 C.2       1 <0>         0.7006
     16 O2          5.8508   -6.0855    2.6346 O.2       1 <0>        -0.5167
     17 N2          5.3020   -6.2564    0.4892 N.am      1 <0>        -0.6607
     18 C13         6.5549   -6.7754    0.1649 C.ar      1 <0>         0.3352
     19 C14         6.9100   -6.9643   -1.1692 C.ar      1 <0>        -0.1487
     20 C15         8.1683   -7.4832   -1.4388 C.ar      1 <0>        -0.0088
     21 C16         8.9950   -7.7817   -0.3629 C.ar      1 <0>         0.0209
     22 N3          8.5755   -7.5701    0.8684 N.ar      1 <0>        -0.1895
     23 N4          7.4147   -7.0858    1.1235 N.ar      1 <0>        -0.2238
     24 Cl1         8.6935   -7.7518   -3.0715 Cl        1 <0>        -0.0233
     25 Cl2         2.0607   -1.2913    3.6330 Cl        1 <0>        -0.0443
     26 H1         -1.9521   -6.0032   -2.0250 H         1 <0>         0.0691
     27 H2         -1.7532   -4.8835   -3.3944 H         1 <0>         0.0833
     28 H3         -0.4039   -5.9343   -2.9006 H         1 <0>         0.0682
     29 H4         -0.0587   -3.6105   -2.1073 H         1 <0>         0.0679
     30 H5         -1.6069   -3.6794   -1.2316 H         1 <0>         0.0683
     31 H6         -0.2509   -2.2608   -0.5122 H         1 <0>         0.1502
     32 H7          0.6570   -0.7594    1.2139 H         1 <0>         0.1479
     33 H8          2.3652   -3.6215    4.6075 H         1 <0>         0.1381
     34 H9          2.0690   -6.0960    5.0820 H         1 <0>         0.1126
     35 H10         1.4660   -6.3542    3.3583 H         1 <0>         0.1330
     36 H11         4.2771   -5.2327    4.1802 H         1 <0>         0.1532
     37 H12         3.0798   -5.4808    1.4114 H         1 <0>         0.3967
     38 H13         4.6472   -6.0982   -0.2087 H         1 <0>         0.4168
     39 H14         6.2272   -6.7152   -1.9680 H         1 <0>         0.1624
     40 H15         9.9810   -8.1873   -0.5355 H         1 <0>         0.1841
@<TRIPOS>BOND
     1    1    2 1
     2    1   26 1
     3    1   27 1
     4    1   28 1
     5    2    3 1
     6    2   29 1
     7    2   30 1
     8    3    4 1
     9    4    9 ar
    10    4    5 ar
    11    5    6 ar
    12    5   31 1
    13    6    7 ar
    14    6   32 1
    15    7    8 ar
    16    7   25 1
    17    8    9 ar
    18    8   11 1
    19    9   10 1
    20   11   13 1
    21   11   12 1
    22   11   33 1
    23   12   13 1
    24   12   34 1
    25   12   35 1
    26   13   14 1
    27   13   36 1
    28   14   15 am
    29   14   37 1
    30   15   16 2
    31   15   17 am
    32   17   18 1
    33   17   38 1
    34   18   23 ar
    35   18   19 ar
    36   19   20 ar
    37   19   39 1
    38   20   21 ar
    39   20   24 1
    40   21   22 ar
    41   21   40 1
    42   22   23 ar
@<TRIPOS>MOLECULE
CHEMBL380643
   46    49     0     0     0
SMALL
USER_CHARGES

@<TRIPOS>ATOM
      1 C1         -0.3708    1.3856    2.7350 C.3       1 <0>        -0.1662
      2 C2         -0.3370    0.7527    1.3424 C.3       1 <0>         0.1430
      3 H1         -0.1656    1.5222    0.5897 H         1 <0>         0.0828
      4 C3         -1.6721    0.0316    1.0611 C.3       1 <0>        -0.1248
      5 C4         -1.2247   -1.2422    0.2965 C.3       1 <0>        -0.1320
      6 C5          0.1164   -1.5713    0.9984 C.3       1 <0>         0.1229
      7 N1          0.7300   -0.2566    1.2776 N.pl3     1 <0>        -0.6176
      8 C6          2.0638   -0.0169    1.4475 C.2       1 <0>         0.3226
      9 C7          2.9897    0.7292    0.8074 C.2       1 <0>        -0.2372
     10 C8          4.1527    0.3901    1.7011 C.3       1 <0>         0.0084
     11 C9          3.1138   -0.4707    2.4326 C.3       1 <0>        -0.0380
     12 H2          2.9157   -0.1299    3.4488 H         1 <0>         0.1392
     13 C10         3.3978   -1.9478    2.3791 C.ar      1 <0>        -0.1095
     14 C11         2.6427   -2.9522    2.9972 C.ar      1 <0>        -0.0782
     15 C12         2.9866   -4.2787    2.8784 C.ar      1 <0>        -0.1193
     16 C13         4.0932   -4.6598    2.1412 C.ar      1 <0>        -0.0891
     17 C14         4.8554   -3.6864    1.5252 C.ar      1 <0>        -0.0843
     18 C15         4.5076   -2.3511    1.6507 C.ar      1 <0>        -0.0728
     19 S1          5.2747   -0.8782    1.0013 S.3       1 <0>        -0.0494
     20 C16         4.8125    1.5271    2.4379 C.2       1 <0>         0.5169
     21 O1          4.3829    1.8826    3.5098 O.2       1 <0>        -0.4855
     22 O2          5.8776    2.1450    1.9034 O.3       1 <0>        -0.3271
     23 C17         6.4528    3.2145    2.6566 C.3       1 <0>         0.0323
     24 C18         2.8972    1.5582   -0.3317 C.2       1 <0>         0.5316
     25 O3          1.8331    1.6818   -0.9095 O.2       1 <0>        -0.5062
     26 O4          3.9886    2.2136   -0.7798 O.3       1 <0>        -0.3445
     27 C19         3.8224    3.0350   -1.9373 C.3       1 <0>         0.0365
     28 H3          0.5504    1.9436    2.9029 H         1 <0>         0.0550
     29 H4         -1.2231    2.0614    2.8064 H         1 <0>         0.0720
     30 H5         -0.4637    0.6028    3.4877 H         1 <0>         0.0620
     31 H6         -2.1711   -0.2335    1.9933 H         1 <0>         0.0799
     32 H7         -2.3196    0.6482    0.4377 H         1 <0>         0.0855
     33 H8         -1.9439   -2.0504    0.4293 H         1 <0>         0.0879
     34 H9         -1.0701   -1.0288   -0.7612 H         1 <0>         0.0797
     35 H10        -0.0643   -2.1120    1.9274 H         1 <0>         0.0657
     36 H11         0.7573   -2.1548    0.3374 H         1 <0>         0.0721
     37 H12         1.7740   -2.6801    3.5784 H         1 <0>         0.1243
     38 H13         2.3857   -5.0316    3.3668 H         1 <0>         0.1315
     39 H14         4.3576   -5.7029    2.0489 H         1 <0>         0.1375
     40 H15         5.7226   -3.9663    0.9456 H         1 <0>         0.1339
     41 H16         7.3034    3.6254    2.1128 H         1 <0>         0.1092
     42 H17         5.7069    3.9948    2.8077 H         1 <0>         0.0634
     43 H18         6.7869    2.8390    3.6239 H         1 <0>         0.0648
     44 H19         3.4856    2.4214   -2.7729 H         1 <0>         0.0605
     45 H20         3.0810    3.8071   -1.7315 H         1 <0>         0.0582
     46 H21         4.7737    3.5029   -2.1904 H         1 <0>         0.1025
@<TRIPOS>BOND
     1    1    2 1
     2    1   28 1
     3    1   29 1
     4    1   30 1
     5    2    3 1
     6    2    7 1
     7    2    4 1
     8    4    5 1
     9    4   31 1
    10    4   32 1
    11    5    6 1
    12    5   33 1
    13    5   34 1
    14    6    7 1
    15    6   35 1
    16    6   36 1
    17    7    8 1
    18    8   11 1
    19    8    9 2
    20    9   10 1
    21    9   24 1
    22   10   19 1
    23   10   11 1
    24   10   20 1
    25   11   12 1
    26   11   13 1
    27   13   18 ar
    28   13   14 ar
    29   14   15 ar
    30   14   37 1
    31   15   16 ar
    32   15   38 1
    33   16   17 ar
    34   16   39 1
    35   17   18 ar
    36   17   40 1
    37   18   19 1
    38   20   21 2
    39   20   22 1
    40   22   23 1
    41   23   41 1
    42   23   42 1
    43   23   43 1
    44   24   25 2
    45   24   26 1
    46   26   27 1
    47   27   44 1
    48   27   45 1
    49   27   46 1
@<TRIPOS>MOLECULE
CHEMBL295246
   81    83     0     0     0
SMALL
USER_CHARGES

@<TRIPOS>ATOM
      1 C1          1.3545    1.0617   -0.3459 C.3       1 <0>        -0.0876
      2 C2          1.0829   -0.4186   -0.4234 C.2       1 <0>        -0.2466
      3 C3         -0.1838   -0.8846   -0.3870 C.2       1 <0>         0.1550
      4 N1         -0.4126   -2.2317   -0.4585 N.am      1 <0>        -0.5470
      5 C4          0.6128   -3.0963   -0.5643 C.2       1 <0>         0.7005
      6 O1          0.3868   -4.2894   -0.6260 O.2       1 <0>        -0.5368
      7 N2          1.8852   -2.6591   -0.6032 N.am      1 <0>        -0.6533
      8 H1          2.6127   -3.2961   -0.6803 H         1 <0>         0.4349
      9 C5          2.1523   -1.3389   -0.5413 C.2       1 <0>         0.5521
     10 O2          3.3029   -0.9421   -0.5816 O.2       1 <0>        -0.5016
     11 C6         -1.7870   -2.7374   -0.4190 C.3       1 <0>         0.2754
     12 C7         -2.0638   -3.6386   -1.6428 C.3       1 <0>         0.0677
     13 C8         -2.7099   -2.6851   -2.6726 C.3       1 <0>         0.0769
     14 C9         -2.7477   -1.3208   -1.9493 C.3       1 <0>         0.0904
     15 O3         -2.7273   -1.6481   -0.5427 O.3       1 <0>        -0.3016
     16 C10        -4.0311   -0.5663   -2.3020 C.3       1 <0>         0.0734
     17 O4         -3.9932    0.7372   -1.7178 O.3       1 <0>        -0.6045
     18 Si1        -5.3153    1.6412   -2.0263 Si        1 <0>         1.1338
     19 C11        -5.4966    1.8685   -3.8664 C.3       1 <0>        -0.4892
     20 C12        -6.8257    0.7817   -1.3549 C.3       1 <0>        -0.4807
     21 C13        -5.1337    3.3059   -1.2098 C.3       1 <0>        -0.3666
     22 C14        -3.8932    4.0117   -1.7612 C.3       1 <0>        -0.1227
     23 C15        -6.3739    4.1538   -1.4992 C.3       1 <0>        -0.1285
     24 C16        -4.9848    3.1192    0.3014 C.3       1 <0>        -0.1224
     25 C17        -4.1161   -3.1391   -2.9626 C.2       1 <0>         0.2024
     26 C18        -4.2087   -3.4495   -4.4571 C.3       1 <0>        -0.6655
     27 S1         -2.4162   -3.6058   -4.8473 S.o2      1 <0>         2.5597
     28 O5         -2.1239   -3.0644   -6.1282 O.2       1 <0>        -0.9138
     29 O6         -1.9155   -4.8738   -4.4464 O.2       1 <0>        -0.9157
     30 O7         -1.8615   -2.5873   -3.8213 O.3       1 <0>        -0.6565
     31 N3         -5.0644   -3.2464   -2.1104 N.2       1 <0>        -0.5529
     32 O8         -2.9685   -4.6892   -1.2966 O.3       1 <0>        -0.5838
     33 Si2        -2.2377   -6.0405   -0.7489 Si        1 <0>         1.1289
     34 C19        -0.9086   -6.5571   -1.9478 C.3       1 <0>        -0.4576
     35 C20        -1.4742   -5.7020    0.9165 C.3       1 <0>        -0.4788
     36 C21        -3.4953   -7.4057   -0.5896 C.3       1 <0>        -0.3785
     37 C22        -4.1222   -7.6836   -1.9573 C.3       1 <0>        -0.1194
     38 C23        -2.8097   -8.6733   -0.0758 C.3       1 <0>        -0.1288
     39 C24        -4.5867   -6.9813    0.3950 C.3       1 <0>        -0.1182
     40 H2          2.4292    1.2370   -0.3953 H         1 <0>         0.0823
     41 H3          0.8655    1.5650   -1.1800 H         1 <0>         0.0738
     42 H4          0.9653    1.4538    0.5937 H         1 <0>         0.0738
     43 H5         -1.0125   -0.1973   -0.3016 H         1 <0>         0.1887
     44 H6         -1.9621   -3.2866    0.5061 H         1 <0>         0.1561
     45 H7         -1.1328   -4.0505   -2.0322 H         1 <0>         0.1255
     46 H8         -1.8727   -0.7270   -2.2134 H         1 <0>         0.1161
     47 H9         -4.1140   -0.4768   -3.3851 H         1 <0>         0.0690
     48 H10        -4.8916   -1.1127   -1.9157 H         1 <0>         0.0893
     49 H11        -5.6028    0.8945   -4.3441 H         1 <0>         0.0773
     50 H12        -6.3801    2.4726   -4.0726 H         1 <0>         0.0879
     51 H13        -4.6129    2.3714   -4.2592 H         1 <0>         0.0900
     52 H14        -6.7196    0.6487   -0.2783 H         1 <0>         0.0909
     53 H15        -7.7092    1.3858   -1.5611 H         1 <0>         0.0864
     54 H16        -6.9319   -0.1923   -1.8326 H         1 <0>         0.0788
     55 H17        -3.9993    4.1447   -2.8378 H         1 <0>         0.0519
     56 H18        -3.7870    4.9857   -1.2835 H         1 <0>         0.0538
     57 H19        -3.0097    3.4076   -1.5550 H         1 <0>         0.0588
     58 H20        -7.2576    3.6510   -1.1064 H         1 <0>         0.0540
     59 H21        -6.2676    5.1278   -1.0215 H         1 <0>         0.0564
     60 H22        -6.4800    4.2868   -2.5758 H         1 <0>         0.0540
     61 H23        -4.1012    2.5151    0.5076 H         1 <0>         0.0594
     62 H24        -4.8785    4.0931    0.7791 H         1 <0>         0.0532
     63 H25        -5.8685    2.6163    0.6942 H         1 <0>         0.0519
     64 H26        -4.7378   -4.3854   -4.6367 H         1 <0>         0.1671
     65 H27        -5.9407   -3.5492   -2.3955 H         1 <0>         0.3656
     66 H28        -4.6649   -2.6261   -5.0067 H         1 <0>         0.1681
     67 H29        -0.1728   -5.7584   -2.0410 H         1 <0>         0.1012
     68 H30        -0.4202   -7.4602   -1.5818 H         1 <0>         0.0825
     69 H31        -1.3553   -6.7551   -2.9222 H         1 <0>         0.1025
     70 H32        -2.2623   -5.5199    1.6472 H         1 <0>         0.0840
     71 H33        -0.8829   -6.5635    1.2269 H         1 <0>         0.0844
     72 H34        -0.8309   -4.8247    0.8497 H         1 <0>         0.0963
     73 H35        -3.3447   -7.9859   -2.6588 H         1 <0>         0.0541
     74 H36        -4.8580   -8.4824   -1.8642 H         1 <0>         0.0510
     75 H37        -4.6107   -6.7805   -2.3234 H         1 <0>         0.0518
     76 H38        -2.3630   -8.4753    0.8985 H         1 <0>         0.0530
     77 H39        -3.5455   -9.4720    0.0173 H         1 <0>         0.0538
     78 H40        -2.0321   -8.9756   -0.7773 H         1 <0>         0.0533
     79 H41        -5.0752   -6.0783    0.0290 H         1 <0>         0.0589
     80 H42        -5.3225   -7.7801    0.4882 H         1 <0>         0.0498
     81 H43        -4.1401   -6.7833    1.3694 H         1 <0>         0.0507
@<TRIPOS>BOND
     1    1    2 1
     2    1   40 1
     3    1   41 1
     4    1   42 1
     5    2    9 1
     6    2    3 2
     7    3    4 1
     8    3   43 1
     9    4    5 am
    10    4   11 1
    11    5    6 2
    12    5    7 am
    13    7    8 1
    14    7    9 am
    15    9   10 2
    16   11   15 1
    17   11   12 1
    18   11   44 1
    19   12   32 1
    20   12   45 1
    21   12   13 1
    22   13   25 1
    23   13   30 1
    24   13   14 1
    25   14   15 1
    26   14   16 1
    27   14   46 1
    28   16   17 1
    29   16   47 1
    30   16   48 1
    31   17   18 1
    32   18   19 1
    33   18   20 1
    34   18   21 1
    35   19   49 1
    36   19   50 1
    37   19   51 1
    38   20   52 1
    39   20   53 1
    40   20   54 1
    41   21   22 1
    42   21   23 1
    43   21   24 1
    44   22   55 1
    45   22   56 1
    46   22   57 1
    47   23   58 1
    48   23   59 1
    49   23   60 1
    50   24   61 1
    51   24   62 1
    52   24   63 1
    53   25   26 1
    54   25   31 2
    55   26   27 1
    56   26   64 1
    57   26   66 1
    58   27   28 2
    59   27   29 2
    60   27   30 1
    61   31   65 1
    62   32   33 1
    63   33   34 1
    64   33   35 1
    65   33   36 1
    66   34   67 1
    67   34   68 1
    68   34   69 1
    69   35   70 1
    70   35   71 1
    71   35   72 1
    72   36   37 1
    73   36   38 1
    74   36   39 1
    75   37   73 1
    76   37   74 1
    77   37   75 1
    78   38   76 1
    79   38   77 1
    80   38   78 1
    81   39   79 1
    82   39   80 1
    83   39   81 1
@<TRIPOS>MOLECULE
CHEMBL295246__1
   81    83     0     0     0
SMALL
USER_CHARGES

@<TRIPOS>ATOM
      1 C1          1.3545    1.0617   -0.3460 C.3       1 <0>        -0.0881
      2 C2          1.0830   -0.4186   -0.4235 C.2       1 <0>        -0.2435
      3 C3         -0.1838   -0.8845   -0.3871 C.2       1 <0>         0.1526
      4 N1         -0.4126   -2.2317   -0.4585 N.am      1 <0>        -0.5456
      5 C4          0.6128   -3.0963   -0.5643 C.2       1 <0>         0.7011
      6 O1          0.3868   -4.2894   -0.6260 O.2       1 <0>        -0.5363
      7 N2          1.8852   -2.6591   -0.6032 N.am      1 <0>        -0.6527
      8 H1          2.6127   -3.2961   -0.6803 H         1 <0>         0.4355
      9 C5          2.1523   -1.3389   -0.5413 C.2       1 <0>         0.5517
     10 O2          3.3029   -0.9421   -0.5816 O.2       1 <0>        -0.4997
     11 C6         -1.7870   -2.7374   -0.4191 C.3       1 <0>         0.2731
     12 C7         -2.0638   -3.6386   -1.6428 C.3       1 <0>         0.0563
     13 C8         -2.7099   -2.6851   -2.6726 C.3       1 <0>         0.0227
     14 C9         -2.7477   -1.3209   -1.9493 C.3       1 <0>         0.0773
     15 O3         -2.7273   -1.6481   -0.5428 O.3       1 <0>        -0.3166
     16 C10        -4.0311   -0.5664   -2.3021 C.3       1 <0>         0.0744
     17 O4         -3.9932    0.7372   -1.7179 O.3       1 <0>        -0.6053
     18 Si1        -5.3152    1.6412   -2.0264 Si        1 <0>         1.1305
     19 C11        -5.4965    1.8685   -3.8665 C.3       1 <0>        -0.4866
     20 C12        -6.8257    0.7817   -1.3550 C.3       1 <0>        -0.4819
     21 C13        -5.1337    3.3059   -1.2099 C.3       1 <0>        -0.3660
     22 C14        -3.8932    4.0117   -1.7613 C.3       1 <0>        -0.1227
     23 C15        -6.3739    4.1538   -1.4993 C.3       1 <0>        -0.1292
     24 C16        -4.9848    3.1192    0.3013 C.3       1 <0>        -0.1222
     25 C17        -4.1161   -3.1391   -2.9627 C.2       1 <0>         0.2079
     26 C18        -4.2087   -3.4496   -4.4571 C.3       1 <0>        -0.5964
     27 S1         -2.4162   -3.6059   -4.8473 S.o2      1 <0>         2.5588
     28 O5         -2.1239   -3.0645   -6.1282 O.2       1 <0>        -0.9135
     29 O6         -1.9155   -4.8738   -4.4464 O.2       1 <0>        -0.9176
     30 O7         -1.8615   -2.5874   -3.8213 O.3       1 <0>        -0.6590
     31 N3         -5.0644   -3.2464   -2.1104 N.2       1 <0>        -0.5559
     32 O8         -2.9685   -4.6892   -1.2966 O.3       1 <0>        -0.6014
     33 Si2        -2.2377   -6.0405   -0.7489 Si        1 <0>         1.1287
     34 C19        -0.9086   -6.5572   -1.9478 C.3       1 <0>        -0.4532
     35 C20        -1.4742   -5.7020    0.9165 C.3       1 <0>        -0.4803
     36 C21        -3.4953   -7.4057   -0.5896 C.3       1 <0>        -0.3754
     37 C22        -4.1222   -7.6836   -1.9573 C.3       1 <0>        -0.1218
     38 C23        -2.8097   -8.6733   -0.0758 C.3       1 <0>        -0.1300
     39 C24        -4.5867   -6.9813    0.3950 C.3       1 <0>        -0.1188
     40 H2          2.4292    1.2370   -0.3954 H         1 <0>         0.0830
     41 H3          0.8656    1.5650   -1.1800 H         1 <0>         0.0743
     42 H4          0.9653    1.4538    0.5936 H         1 <0>         0.0742
     43 H5         -1.0125   -0.1972   -0.3016 H         1 <0>         0.1885
     44 H6         -1.9621   -3.2866    0.5061 H         1 <0>         0.1571
     45 H7         -1.1328   -4.0505   -2.0322 H         1 <0>         0.1311
     46 H8         -1.8726   -0.7270   -2.2135 H         1 <0>         0.1227
     47 H9         -4.1140   -0.4768   -3.3852 H         1 <0>         0.0789
     48 H10        -4.8916   -1.1127   -1.9158 H         1 <0>         0.0732
     49 H11        -5.6028    0.8945   -4.3442 H         1 <0>         0.0804
     50 H12        -6.3801    2.4726   -4.0727 H         1 <0>         0.0889
     51 H13        -4.6128    2.3713   -4.2593 H         1 <0>         0.0909
     52 H14        -6.7196    0.6487   -0.2784 H         1 <0>         0.0901
     53 H15        -7.7092    1.3858   -1.5612 H         1 <0>         0.0881
     54 H16        -6.9319   -0.1923   -1.8327 H         1 <0>         0.0822
     55 H17        -3.9993    4.1447   -2.8379 H         1 <0>         0.0524
     56 H18        -3.7870    4.9857   -1.2836 H         1 <0>         0.0542
     57 H19        -3.0097    3.4076   -1.5551 H         1 <0>         0.0585
     58 H20        -7.2576    3.6510   -1.1065 H         1 <0>         0.0543
     59 H21        -6.2676    5.1278   -1.0216 H         1 <0>         0.0568
     60 H22        -6.4799    4.2868   -2.5759 H         1 <0>         0.0545
     61 H23        -4.1012    2.5151    0.5075 H         1 <0>         0.0587
     62 H24        -4.8785    4.0932    0.7790 H         1 <0>         0.0537
     63 H25        -5.8685    2.6163    0.6941 H         1 <0>         0.0519
     64 H26        -4.7378   -4.3855   -4.6367 H         1 <0>         0.1730
     65 H27        -4.9069   -3.0251   -1.1793 H         1 <0>         0.3656
     66 H28        -4.6649   -2.6262   -5.0067 H         1 <0>         0.1691
     67 H29        -0.1728   -5.7584   -2.0410 H         1 <0>         0.1021
     68 H30        -0.4202   -7.4602   -1.5818 H         1 <0>         0.0834
     69 H31        -1.3553   -6.7552   -2.9222 H         1 <0>         0.1054
     70 H32        -2.2623   -5.5199    1.6472 H         1 <0>         0.0839
     71 H33        -0.8829   -6.5635    1.2269 H         1 <0>         0.0852
     72 H34        -0.8309   -4.8247    0.8497 H         1 <0>         0.0965
     73 H35        -3.3447   -7.9859   -2.6588 H         1 <0>         0.0541
     74 H36        -4.8580   -8.4823   -1.8642 H         1 <0>         0.0522
     75 H37        -4.6107   -6.7805   -2.3234 H         1 <0>         0.0575
     76 H38        -2.3630   -8.4753    0.8985 H         1 <0>         0.0527
     77 H39        -3.5455   -9.4720    0.0173 H         1 <0>         0.0553
     78 H40        -2.0321   -8.9756   -0.7773 H         1 <0>         0.0538
     79 H41        -5.0752   -6.0783    0.0290 H         1 <0>         0.0579
     80 H42        -5.3226   -7.7801    0.4882 H         1 <0>         0.0525
     81 H43        -4.1401   -6.7833    1.3694 H         1 <0>         0.0503
@<TRIPOS>BOND
     1    1    2 1
     2    1   40 1
     3    1   41 1
     4    1   42 1
     5    2    9 1
     6    2    3 2
     7    3    4 1
     8    3   43 1
     9    4    5 am
    10    4   11 1
    11    5    6 2
    12    5    7 am
    13    7    8 1
    14    7    9 am
    15    9   10 2
    16   11   15 1
    17   11   12 1
    18   11   44 1
    19   12   32 1
    20   12   45 1
    21   12   13 1
    22   13   25 1
    23   13   30 1
    24   13   14 1
    25   14   15 1
    26   14   16 1
    27   14   46 1
    28   16   17 1
    29   16   47 1
    30   16   48 1
    31   17   18 1
    32   18   19 1
    33   18   20 1
    34   18   21 1
    35   19   49 1
    36   19   50 1
    37   19   51 1
    38   20   52 1
    39   20   53 1
    40   20   54 1
    41   21   22 1
    42   21   23 1
    43   21   24 1
    44   22   55 1
    45   22   56 1
    46   22   57 1
    47   23   58 1
    48   23   59 1
    49   23   60 1
    50   24   61 1
    51   24   62 1
    52   24   63 1
    53   25   26 1
    54   25   31 2
    55   26   27 1
    56   26   64 1
    57   26   66 1
    58   27   28 2
    59   27   29 2
    60   27   30 1
    61   31   65 1
    62   32   33 1
    63   33   34 1
    64   33   35 1
    65   33   36 1
    66   34   67 1
    67   34   68 1
    68   34   69 1
    69   35   70 1
    70   35   71 1
    71   35   72 1
    72   36   37 1
    73   36   38 1
    74   36   39 1
    75   37   73 1
    76   37   74 1
    77   37   75 1
    78   38   76 1
    79   38   77 1
    80   38   78 1
    81   39   79 1
    82   39   80 1
    83   39   81 1
@<TRIPOS>MOLECULE
CHEMBL295246__2
   81    83     0     0     0
SMALL
USER_CHARGES

@<TRIPOS>ATOM
      1 C1         -0.5177    0.5053   -0.9075 C.3       1 <0>        -0.0924
      2 C2         -0.6235   -0.6745    0.0241 C.2       1 <0>        -0.2358
      3 C3         -1.5799   -1.6094   -0.1619 C.2       1 <0>         0.1436
      4 N1         -1.6618   -2.6744    0.6933 N.am      1 <0>        -0.5228
      5 C4         -0.7988   -2.7985    1.7180 C.2       1 <0>         0.7128
      6 O1         -0.8899   -3.7526    2.4661 O.2       1 <0>        -0.5294
      7 N2          0.1643   -1.8815    1.9262 N.am      1 <0>        -0.6549
      8 H1          0.7787   -1.9866    2.6694 H         1 <0>         0.4357
      9 C5          0.2821   -0.8206    1.1024 C.2       1 <0>         0.5548
     10 O2          1.1564    0.0068    1.2870 O.2       1 <0>        -0.4971
     11 C6         -2.6994   -3.6888    0.4917 C.3       1 <0>         0.2735
     12 C7         -2.7159   -4.1672   -0.9825 C.3       1 <0>         0.0549
     13 C8         -4.1691   -4.6765   -1.1420 C.3       1 <0>         0.0252
     14 C9         -4.9423   -3.9724   -0.0102 C.3       1 <0>         0.1020
     15 O3         -4.0123   -3.1166    0.6746 O.3       1 <0>        -0.3373
     16 C10        -6.0810   -3.1374   -0.5992 C.3       1 <0>         0.0848
     17 O4         -6.8625   -2.5825    0.4608 O.3       1 <0>        -0.6074
     18 Si1        -8.1134   -1.6670   -0.0463 Si        1 <0>         1.1336
     19 C11        -7.4696   -0.2418   -1.0588 C.3       1 <0>        -0.4833
     20 C12        -9.2582   -2.7026   -1.0893 C.3       1 <0>        -0.4887
     21 C13        -9.0413   -1.0108    1.4299 C.3       1 <0>        -0.3679
     22 C14        -8.1012   -0.1604    2.2864 C.3       1 <0>        -0.1221
     23 C15       -10.2148   -0.1520    0.9542 C.3       1 <0>        -0.1278
     24 C16        -9.5701   -2.1813    2.2614 C.3       1 <0>        -0.1224
     25 C17        -4.1993   -6.1665   -0.9250 C.2       1 <0>         0.2166
     26 C18        -4.7188   -6.8160   -2.2082 C.3       1 <0>        -0.5909
     27 S1         -4.4512   -5.4245   -3.3837 S.o2      1 <0>         2.5611
     28 O5         -3.0884   -5.3447   -3.7780 O.2       1 <0>        -0.9160
     29 O6         -5.5039   -5.3511   -4.3354 O.2       1 <0>        -0.9137
     30 O7         -4.6788   -4.2440   -2.4079 O.3       1 <0>        -0.6603
     31 N3         -3.8518   -6.7798    0.1427 N.2       1 <0>        -0.5648
     32 O8         -1.7789   -5.2269   -1.1852 O.3       1 <0>        -0.5917
     33 Si2        -0.3468   -4.7389   -1.7943 Si        1 <0>         1.1314
     34 C19        -0.6415   -3.6379   -3.2680 C.3       1 <0>        -0.4732
     35 C20         0.5926   -3.7946   -0.4916 C.3       1 <0>        -0.5075
     36 C21         0.6444   -6.2265   -2.3188 C.3       1 <0>        -0.3573
     37 C22        -0.1271   -7.0020   -3.3886 C.3       1 <0>        -0.1203
     38 C23         1.9878   -5.7687   -2.8901 C.3       1 <0>        -0.1316
     39 C24         0.8864   -7.1307   -1.1085 C.3       1 <0>        -0.1221
     40 H2          0.3127    1.1397   -0.5975 H         1 <0>         0.0862
     41 H3         -0.3449    0.1515   -1.9238 H         1 <0>         0.0754
     42 H4         -1.4444    1.0782   -0.8749 H         1 <0>         0.0766
     43 H5         -2.2770   -1.5168   -0.9816 H         1 <0>         0.1780
     44 H6         -2.5494   -4.5296    1.1689 H         1 <0>         0.1422
     45 H7         -2.5166   -3.3389   -1.6625 H         1 <0>         0.1164
     46 H8         -5.3428   -4.7133    0.6817 H         1 <0>         0.1122
     47 H9         -5.6654   -2.3317   -1.2044 H         1 <0>         0.0784
     48 H10        -6.7119   -3.7714   -1.2222 H         1 <0>         0.0796
     49 H11        -6.9267   -0.6257   -1.9225 H         1 <0>         0.0822
     50 H12        -8.3056    0.3700   -1.3977 H         1 <0>         0.0874
     51 H13        -6.7998    0.3641   -0.4486 H         1 <0>         0.0885
     52 H14        -9.6349   -3.5364   -0.4969 H         1 <0>         0.0884
     53 H15       -10.0942   -2.0907   -1.4282 H         1 <0>         0.0881
     54 H16        -8.7153   -3.0865   -1.9530 H         1 <0>         0.0827
     55 H17        -7.7245    0.6735    1.6940 H         1 <0>         0.0517
     56 H18        -8.6441    0.2235    3.1501 H         1 <0>         0.0525
     57 H19        -7.2652   -0.7722    2.6253 H         1 <0>         0.0581
     58 H20       -10.8846   -0.7579    0.3439 H         1 <0>         0.0545
     59 H21       -10.7577    0.2319    1.8179 H         1 <0>         0.0555
     60 H22        -9.8381    0.6818    0.3618 H         1 <0>         0.0542
     61 H23        -8.7341   -2.7931    2.6003 H         1 <0>         0.0574
     62 H24       -10.1130   -1.7974    3.1251 H         1 <0>         0.0530
     63 H25       -10.2398   -2.7872    1.6512 H         1 <0>         0.0522
     64 H26        -4.1240   -7.6875   -2.4817 H         1 <0>         0.1725
     65 H27        -3.5329   -6.2773    0.9087 H         1 <0>         0.3563
     66 H28        -5.7758   -7.0693   -2.1259 H         1 <0>         0.1708
     67 H29        -1.2214   -2.7675   -2.9610 H         1 <0>         0.0784
     68 H30         0.3156   -3.3117   -3.6750 H         1 <0>         0.0895
     69 H31        -1.1911   -4.1903   -4.0301 H         1 <0>         0.1216
     70 H32         0.4187   -4.2499    0.4834 H         1 <0>         0.0909
     71 H33         1.6579   -3.8218   -0.7205 H         1 <0>         0.0920
     72 H34         0.2507   -2.7598   -0.4756 H         1 <0>         0.0777
     73 H35        -0.2995   -6.3578   -4.2508 H         1 <0>         0.0601
     74 H36         0.4528   -7.8724   -3.6955 H         1 <0>         0.0527
     75 H37        -1.0842   -7.3282   -2.9816 H         1 <0>         0.0591
     76 H38         2.5374   -5.2162   -2.1280 H         1 <0>         0.0532
     77 H39         2.5678   -6.6391   -3.1970 H         1 <0>         0.0598
     78 H40         1.8154   -5.1245   -3.7523 H         1 <0>         0.0558
     79 H41        -0.0707   -7.4569   -0.7015 H         1 <0>         0.0592
     80 H42         1.4663   -8.0011   -1.4154 H         1 <0>         0.0563
     81 H43         1.4360   -6.5783   -0.3464 H         1 <0>         0.0512
@<TRIPOS>BOND
     1    1    2 1
     2    1   40 1
     3    1   41 1
     4    1   42 1
     5    2    9 1
     6    2    3 2
     7    3    4 1
     8    3   43 1
     9    4    5 am
    10    4   11 1
    11    5    6 2
    12    5    7 am
    13    7    8 1
    14    7    9 am
    15    9   10 2
    16   11   15 1
    17   11   12 1
    18   11   44 1
    19   12   32 1
    20   12   45 1
    21   12   13 1
    22   13   25 1
    23   13   30 1
    24   13   14 1
    25   14   15 1
    26   14   16 1
    27   14   46 1
    28   16   17 1
    29   16   47 1
    30   16   48 1
    31   17   18 1
    32   18   19 1
    33   18   20 1
    34   18   21 1
    35   19   49 1
    36   19   50 1
    37   19   51 1
    38   20   52 1
    39   20   53 1
    40   20   54 1
    41   21   22 1
    42   21   23 1
    43   21   24 1
    44   22   55 1
    45   22   56 1
    46   22   57 1
    47   23   58 1
    48   23   59 1
    49   23   60 1
    50   24   61 1
    51   24   62 1
    52   24   63 1
    53   25   26 1
    54   25   31 2
    55   26   27 1
    56   26   64 1
    57   26   66 1
    58   27   28 2
    59   27   29 2
    60   27   30 1
    61   31   65 1
    62   32   33 1
    63   33   34 1
    64   33   35 1
    65   33   36 1
    66   34   67 1
    67   34   68 1
    68   34   69 1
    69   35   70 1
    70   35   71 1
    71   35   72 1
    72   36   37 1
    73   36   38 1
    74   36   39 1
    75   37   73 1
    76   37   74 1
    77   37   75 1
    78   38   76 1
    79   38   77 1
    80   38   78 1
    81   39   79 1
    82   39   80 1
    83   39   81 1
@<TRIPOS>MOLECULE
CHEMBL295246__3
   81    83     0     0     0
SMALL
USER_CHARGES

@<TRIPOS>ATOM
      1 C1         -0.5177    0.5053   -0.9075 C.3       1 <0>        -0.0915
      2 C2         -0.6235   -0.6745    0.0241 C.2       1 <0>        -0.2404
      3 C3         -1.5799   -1.6094   -0.1619 C.2       1 <0>         0.1455
      4 N1         -1.6618   -2.6744    0.6933 N.am      1 <0>        -0.5245
      5 C4         -0.7988   -2.7985    1.7180 C.2       1 <0>         0.7119
      6 O1         -0.8899   -3.7526    2.4661 O.2       1 <0>        -0.5260
      7 N2          0.1643   -1.8816    1.9262 N.am      1 <0>        -0.6561
      8 H1          0.7787   -1.9866    2.6694 H         1 <0>         0.4348
      9 C5          0.2821   -0.8206    1.1024 C.2       1 <0>         0.5554
     10 O2          1.1564    0.0068    1.2870 O.2       1 <0>        -0.5003
     11 C6         -2.6994   -3.6888    0.4917 C.3       1 <0>         0.2799
     12 C7         -2.7159   -4.1672   -0.9825 C.3       1 <0>         0.0649
     13 C8         -4.1691   -4.6765   -1.1420 C.3       1 <0>         0.0813
     14 C9         -4.9423   -3.9724   -0.0102 C.3       1 <0>         0.1137
     15 O3         -4.0123   -3.1166    0.6746 O.3       1 <0>        -0.3403
     16 C10        -6.0810   -3.1374   -0.5992 C.3       1 <0>         0.0805
     17 O4         -6.8625   -2.5825    0.4608 O.3       1 <0>        -0.6051
     18 Si1        -8.1134   -1.6670   -0.0464 Si        1 <0>         1.1339
     19 C11        -7.4696   -0.2418   -1.0588 C.3       1 <0>        -0.4837
     20 C12        -9.2582   -2.7026   -1.0893 C.3       1 <0>        -0.4895
     21 C13        -9.0413   -1.0108    1.4299 C.3       1 <0>        -0.3681
     22 C14        -8.1012   -0.1604    2.2864 C.3       1 <0>        -0.1224
     23 C15       -10.2148   -0.1520    0.9542 C.3       1 <0>        -0.1275
     24 C16        -9.5701   -2.1813    2.2614 C.3       1 <0>        -0.1224
     25 C17        -4.1993   -6.1665   -0.9250 C.2       1 <0>         0.2104
     26 C18        -4.7188   -6.8160   -2.2082 C.3       1 <0>        -0.6592
     27 S1         -4.4512   -5.4245   -3.3837 S.o2      1 <0>         2.5620
     28 O5         -3.0884   -5.3447   -3.7780 O.2       1 <0>        -0.9146
     29 O6         -5.5039   -5.3511   -4.3354 O.2       1 <0>        -0.9147
     30 O7         -4.6788   -4.2440   -2.4079 O.3       1 <0>        -0.6587
     31 N3         -3.8518   -6.7798    0.1427 N.2       1 <0>        -0.5742
     32 O8         -1.7789   -5.2269   -1.1852 O.3       1 <0>        -0.5856
     33 Si2        -0.3468   -4.7389   -1.7943 Si        1 <0>         1.1326
     34 C19        -0.6415   -3.6379   -3.2680 C.3       1 <0>        -0.4760
     35 C20         0.5926   -3.7946   -0.4916 C.3       1 <0>        -0.5065
     36 C21         0.6444   -6.2265   -2.3188 C.3       1 <0>        -0.3607
     37 C22        -0.1271   -7.0020   -3.3886 C.3       1 <0>        -0.1188
     38 C23         1.9878   -5.7687   -2.8901 C.3       1 <0>        -0.1308
     39 C24         0.8864   -7.1307   -1.1085 C.3       1 <0>        -0.1209
     40 H2          0.3127    1.1397   -0.5975 H         1 <0>         0.0853
     41 H3         -0.3449    0.1515   -1.9238 H         1 <0>         0.0743
     42 H4         -1.4444    1.0782   -0.8749 H         1 <0>         0.0757
     43 H5         -2.2770   -1.5168   -0.9816 H         1 <0>         0.1771
     44 H6         -2.5494   -4.5296    1.1689 H         1 <0>         0.1590
     45 H7         -2.5166   -3.3389   -1.6625 H         1 <0>         0.1106
     46 H8         -5.3428   -4.7133    0.6817 H         1 <0>         0.1192
     47 H9         -5.6654   -2.3317   -1.2044 H         1 <0>         0.0772
     48 H10        -6.7119   -3.7714   -1.2222 H         1 <0>         0.0768
     49 H11        -6.9267   -0.6257   -1.9225 H         1 <0>         0.0821
     50 H12        -8.3056    0.3700   -1.3977 H         1 <0>         0.0871
     51 H13        -6.7998    0.3641   -0.4486 H         1 <0>         0.0887
     52 H14        -9.6349   -3.5364   -0.4969 H         1 <0>         0.0875
     53 H15       -10.0942   -2.0907   -1.4282 H         1 <0>         0.0876
     54 H16        -8.7153   -3.0865   -1.9530 H         1 <0>         0.0818
     55 H17        -7.7245    0.6735    1.6940 H         1 <0>         0.0517
     56 H18        -8.6441    0.2235    3.1501 H         1 <0>         0.0521
     57 H19        -7.2652   -0.7722    2.6253 H         1 <0>         0.0588
     58 H20       -10.8846   -0.7579    0.3439 H         1 <0>         0.0541
     59 H21       -10.7577    0.2319    1.8179 H         1 <0>         0.0552
     60 H22        -9.8381    0.6818    0.3618 H         1 <0>         0.0542
     61 H23        -8.7341   -2.7931    2.6003 H         1 <0>         0.0580
     62 H24       -10.1130   -1.7974    3.1251 H         1 <0>         0.0526
     63 H25       -10.2398   -2.7872    1.6512 H         1 <0>         0.0517
     64 H26        -4.1240   -7.6875   -2.4817 H         1 <0>         0.1661
     65 H27        -3.9072   -7.7472    0.1863 H         1 <0>         0.3719
     66 H28        -5.7758   -7.0693   -2.1259 H         1 <0>         0.1688
     67 H29        -1.2214   -2.7675   -2.9610 H         1 <0>         0.0782
     68 H30         0.3156   -3.3117   -3.6750 H         1 <0>         0.0890
     69 H31        -1.1911   -4.1903   -4.0301 H         1 <0>         0.1197
     70 H32         0.4187   -4.2499    0.4834 H         1 <0>         0.0919
     71 H33         1.6579   -3.8218   -0.7205 H         1 <0>         0.0912
     72 H34         0.2507   -2.7598   -0.4756 H         1 <0>         0.0779
     73 H35        -0.2995   -6.3578   -4.2508 H         1 <0>         0.0602
     74 H36         0.4528   -7.8724   -3.6955 H         1 <0>         0.0514
     75 H37        -1.0842   -7.3282   -2.9816 H         1 <0>         0.0555
     76 H38         2.5374   -5.2162   -2.1280 H         1 <0>         0.0536
     77 H39         2.5678   -6.6391   -3.1970 H         1 <0>         0.0585
     78 H40         1.8154   -5.1245   -3.7523 H         1 <0>         0.0557
     79 H41        -0.0707   -7.4569   -0.7015 H         1 <0>         0.0573
     80 H42         1.4663   -8.0011   -1.4154 H         1 <0>         0.0545
     81 H43         1.4360   -6.5783   -0.3464 H         1 <0>         0.0521
@<TRIPOS>BOND
     1    1    2 1
     2    1   40 1
     3    1   41 1
     4    1   42 1
     5    2    9 1
     6    2    3 2
     7    3    4 1
     8    3   43 1
     9    4    5 am
    10    4   11 1
    11    5    6 2
    12    5    7 am
    13    7    8 1
    14    7    9 am
    15    9   10 2
    16   11   15 1
    17   11   12 1
    18   11   44 1
    19   12   32 1
    20   12   45 1
    21   12   13 1
    22   13   25 1
    23   13   30 1
    24   13   14 1
    25   14   15 1
    26   14   16 1
    27   14   46 1
    28   16   17 1
    29   16   47 1
    30   16   48 1
    31   17   18 1
    32   18   19 1
    33   18   20 1
    34   18   21 1
    35   19   49 1
    36   19   50 1
    37   19   51 1
    38   20   52 1
    39   20   53 1
    40   20   54 1
    41   21   22 1
    42   21   23 1
    43   21   24 1
    44   22   55 1
    45   22   56 1
    46   22   57 1
    47   23   58 1
    48   23   59 1
    49   23   60 1
    50   24   61 1
    51   24   62 1
    52   24   63 1
    53   25   26 1
    54   25   31 2
    55   26   27 1
    56   26   64 1
    57   26   66 1
    58   27   28 2
    59   27   29 2
    60   27   30 1
    61   31   65 1
    62   32   33 1
    63   33   34 1
    64   33   35 1
    65   33   36 1
    66   34   67 1
    67   34   68 1
    68   34   69 1
    69   35   70 1
    70   35   71 1
    71   35   72 1
    72   36   37 1
    73   36   38 1
    74   36   39 1
    75   37   73 1
    76   37   74 1
    77   37   75 1
    78   38   76 1
    79   38   77 1
    80   38   78 1
    81   39   79 1
    82   39   80 1
    83   39   81 1
@<TRIPOS>MOLECULE
CHEMBL295246__4
   81    83     0     0     0
SMALL
USER_CHARGES

@<TRIPOS>ATOM
      1 C1         -0.0383    1.6988   -2.0939 C.3       1 <0>        -0.0855
      2 C2          0.1698    0.3743   -1.4060 C.2       1 <0>        -0.2574
      3 C3         -0.8885   -0.3771   -1.0339 C.2       1 <0>         0.1649
      4 N1         -0.6816   -1.5774   -0.4102 N.am      1 <0>        -0.5303
      5 C4          0.5664   -2.0155   -0.1639 C.2       1 <0>         0.6976
      6 O1          0.7275   -3.0848    0.3919 O.2       1 <0>        -0.5129
      7 N2          1.6392   -1.2869   -0.5244 N.am      1 <0>        -0.6586
      8 H1          2.5321   -1.6179   -0.3398 H         1 <0>         0.4329
      9 C5          1.4777   -0.1015   -1.1464 C.2       1 <0>         0.5535
     10 O2          2.4478    0.5560   -1.4776 O.2       1 <0>        -0.5067
     11 C6         -1.8298   -2.3927   -0.0064 C.3       1 <0>         0.3037
     12 C7         -2.2744   -3.3211   -1.1652 C.3       1 <0>         0.1063
     13 C8         -3.7618   -3.5789   -0.8217 C.3       1 <0>         0.0732
     14 C9         -4.1427   -2.4103    0.1078 C.3       1 <0>         0.0931
     15 O3         -2.9881   -1.5618    0.2226 O.3       1 <0>        -0.3432
     16 C10        -4.5326   -2.9477    1.4862 C.3       1 <0>         0.0066
     17 O4         -3.4914   -3.7928    1.9799 O.3       1 <0>        -0.5958
     18 Si1        -3.7946   -4.4286    3.4510 Si        1 <0>         1.1336
     19 C11        -4.0193   -3.0535    4.6876 C.3       1 <0>        -0.4857
     20 C12        -5.3470   -5.4558    3.3755 C.3       1 <0>        -0.4900
     21 C13        -2.3638   -5.5030    3.9700 C.3       1 <0>        -0.3660
     22 C14        -1.0888   -4.6594    4.0320 C.3       1 <0>        -0.1189
     23 C15        -2.6482   -6.0994    5.3499 C.3       1 <0>        -0.1269
     24 C16        -2.1793   -6.6323    2.9544 C.3       1 <0>        -0.1249
     25 C17        -4.5819   -3.5108   -2.0830 C.2       1 <0>         0.1888
     26 C18        -5.3807   -4.8099   -2.1929 C.3       1 <0>        -0.6750
     27 S1         -5.2627   -5.3881   -0.4489 S.o2      1 <0>         2.5448
     28 O5         -6.1847   -4.6957    0.3816 O.2       1 <0>        -0.9247
     29 O6         -5.1265   -6.8013   -0.3881 O.2       1 <0>        -0.9059
     30 O7         -3.8675   -4.8126   -0.1031 O.3       1 <0>        -0.5939
     31 N3         -4.6061   -2.5386   -2.9144 N.2       1 <0>        -0.5891
     32 O8         -1.5300   -4.5409   -1.1557 O.3       1 <0>        -0.5610
     33 Si2        -0.8934   -4.9409   -2.6031 Si        1 <0>         1.1216
     34 C19        -2.2679   -5.2415   -3.8243 C.3       1 <0>        -0.4989
     35 C20         0.1857   -3.5500   -3.2127 C.3       1 <0>        -0.4812
     36 C21         0.1290   -6.4881   -2.4256 C.3       1 <0>        -0.3551
     37 C22        -0.7572   -7.6304   -1.9250 C.3       1 <0>        -0.1263
     38 C23         0.7261   -6.8633   -3.7834 C.3       1 <0>        -0.1296
     39 C24         1.2578   -6.2412   -1.4227 C.3       1 <0>        -0.1217
     40 H2          0.9292    2.1484   -2.3169 H         1 <0>         0.0811
     41 H3         -0.5894    1.5439   -3.0215 H         1 <0>         0.0708
     42 H4         -0.6054    2.3623   -1.4409 H         1 <0>         0.0721
     43 H5         -1.8935   -0.0323   -1.2273 H         1 <0>         0.1834
     44 H6         -1.5920   -2.9739    0.8846 H         1 <0>         0.1609
     45 H7         -2.1784   -2.8165   -2.1266 H         1 <0>         0.1011
     46 H8         -4.9729   -1.8501   -0.3223 H         1 <0>         0.1397
     47 H9         -4.6801   -2.1140    2.1727 H         1 <0>         0.0792
     48 H10        -5.4569   -3.5195    1.4051 H         1 <0>         0.1274
     49 H11        -4.8564   -2.4249    4.3839 H         1 <0>         0.0795
     50 H12        -4.2219   -3.4784    5.6707 H         1 <0>         0.0839
     51 H13        -3.1110   -2.4526    4.7317 H         1 <0>         0.0854
     52 H14        -5.2156   -6.2603    2.6520 H         1 <0>         0.0803
     53 H15        -5.5497   -5.8807    4.3586 H         1 <0>         0.0872
     54 H16        -6.1842   -4.8272    3.0718 H         1 <0>         0.0907
     55 H17        -1.2203   -3.8549    4.7555 H         1 <0>         0.0475
     56 H18        -0.2517   -5.2880    4.3357 H         1 <0>         0.0505
     57 H19        -0.8862   -4.2345    3.0489 H         1 <0>         0.0610
     58 H20        -3.5565   -6.7004    5.3058 H         1 <0>         0.0531
     59 H21        -1.8111   -6.7280    5.6536 H         1 <0>         0.0542
     60 H22        -2.7797   -5.2949    6.0735 H         1 <0>         0.0521
     61 H23        -1.9766   -6.2074    1.9713 H         1 <0>         0.0681
     62 H24        -1.3421   -7.2609    3.2581 H         1 <0>         0.0503
     63 H25        -3.0876   -7.2333    2.9103 H         1 <0>         0.0491
     64 H26        -6.4148   -4.6178   -2.4790 H         1 <0>         0.1673
     65 H27        -5.1698   -2.5882   -3.7023 H         1 <0>         0.3736
     66 H28        -4.9054   -5.5123   -2.8776 H         1 <0>         0.1710
     67 H29        -2.8422   -4.3248   -3.9579 H         1 <0>         0.0754
     68 H30        -1.8438   -5.5472   -4.7807 H         1 <0>         0.0930
     69 H31        -2.9219   -6.0285   -3.4487 H         1 <0>         0.0865
     70 H32         0.9919   -3.3765   -2.5000 H         1 <0>         0.0857
     71 H33         0.6082   -3.8158   -4.1817 H         1 <0>         0.0921
     72 H34        -0.4118   -2.6438   -3.3131 H         1 <0>         0.0786
     73 H35        -1.5614   -7.8063   -2.6395 H         1 <0>         0.0511
     74 H36        -0.1590   -8.5357   -1.8212 H         1 <0>         0.0574
     75 H37        -1.1826   -7.3631   -0.9577 H         1 <0>         0.0656
     76 H38         1.3575   -6.0495   -4.1401 H         1 <0>         0.0536
     77 H39         1.3244   -7.7686   -3.6796 H         1 <0>         0.0601
     78 H40        -0.0780   -7.0392   -4.4979 H         1 <0>         0.0537
     79 H41         0.8324   -5.9739   -0.4554 H         1 <0>         0.0681
     80 H42         1.8560   -7.1465   -1.3189 H         1 <0>         0.0543
     81 H43         1.8892   -5.4274   -1.7794 H         1 <0>         0.0489
@<TRIPOS>BOND
     1    1    2 1
     2    1   40 1
     3    1   41 1
     4    1   42 1
     5    2    9 1
     6    2    3 2
     7    3    4 1
     8    3   43 1
     9    4    5 am
    10    4   11 1
    11    5    6 2
    12    5    7 am
    13    7    8 1
    14    7    9 am
    15    9   10 2
    16   11   15 1
    17   11   12 1
    18   11   44 1
    19   12   32 1
    20   12   45 1
    21   12   13 1
    22   13   25 1
    23   13   30 1
    24   13   14 1
    25   14   15 1
    26   14   16 1
    27   14   46 1
    28   16   17 1
    29   16   47 1
    30   16   48 1
    31   17   18 1
    32   18   19 1
    33   18   20 1
    34   18   21 1
    35   19   49 1
    36   19   50 1
    37   19   51 1
    38   20   52 1
    39   20   53 1
    40   20   54 1
    41   21   22 1
    42   21   23 1
    43   21   24 1
    44   22   55 1
    45   22   56 1
    46   22   57 1
    47   23   58 1
    48   23   59 1
    49   23   60 1
    50   24   61 1
    51   24   62 1
    52   24   63 1
    53   25   26 1
    54   25   31 2
    55   26   27 1
    56   26   64 1
    57   26   66 1
    58   27   28 2
    59   27   29 2
    60   27   30 1
    61   31   65 1
    62   32   33 1
    63   33   34 1
    64   33   35 1
    65   33   36 1
    66   34   67 1
    67   34   68 1
    68   34   69 1
    69   35   70 1
    70   35   71 1
    71   35   72 1
    72   36   37 1
    73   36   38 1
    74   36   39 1
    75   37   73 1
    76   37   74 1
    77   37   75 1
    78   38   76 1
    79   38   77 1
    80   38   78 1
    81   39   79 1
    82   39   80 1
    83   39   81 1
@<TRIPOS>MOLECULE
CHEMBL295246__5
   81    83     0     0     0
SMALL
USER_CHARGES

@<TRIPOS>ATOM
      1 C1          0.0452    1.6885   -2.1189 C.3       1 <0>        -0.0873
      2 C2          0.2362    0.3651   -1.4239 C.2       1 <0>        -0.2508
      3 C3         -0.8317   -0.3718   -1.0501 C.2       1 <0>         0.1565
      4 N1         -0.6403   -1.5712   -0.4200 N.am      1 <0>        -0.5313
      5 C4          0.6019   -2.0229   -0.1690 C.2       1 <0>         0.6980
      6 O1          0.7491   -3.0913    0.3925 O.2       1 <0>        -0.5105
      7 N2          1.6840   -1.3090   -0.5310 N.am      1 <0>        -0.6580
      8 H1          2.5725   -1.6497   -0.3430 H         1 <0>         0.4338
      9 C5          1.5378   -0.1249   -1.1593 C.2       1 <0>         0.5529
     10 O2          2.5164    0.5192   -1.4919 O.2       1 <0>        -0.5037
     11 C6         -1.7989   -2.3708   -0.0144 C.3       1 <0>         0.3030
     12 C7         -2.2542   -3.2975   -1.1704 C.3       1 <0>         0.1028
     13 C8         -3.7450   -3.5355   -0.8272 C.3       1 <0>         0.0156
     14 C9         -4.1119   -2.3591    0.0980 C.3       1 <0>         0.0810
     15 O3         -2.9469   -1.5247    0.2109 O.3       1 <0>        -0.3488
     16 C10        -4.5096   -2.8868    1.4779 C.3       1 <0>         0.0110
     17 O4         -3.4793   -3.7430    1.9755 O.3       1 <0>        -0.5961
     18 Si1        -3.7916   -4.3700    3.4484 Si        1 <0>         1.1336
     19 C11        -4.0004   -2.9879    4.6801 C.3       1 <0>        -0.4857
     20 C12        -5.3565   -5.3782    3.3751 C.3       1 <0>        -0.4892
     21 C13        -2.3746   -5.4601    3.9724 C.3       1 <0>        -0.3658
     22 C14        -1.0894   -4.6321    4.0326 C.3       1 <0>        -0.1185
     23 C15        -2.6675   -6.0482    5.3542 C.3       1 <0>        -0.1272
     24 C16        -2.2031   -6.5951    2.9609 C.3       1 <0>        -0.1247
     25 C17        -4.5631   -3.4614   -2.0894 C.2       1 <0>         0.1943
     26 C18        -5.3781   -4.7509   -2.1955 C.3       1 <0>        -0.6064
     27 S1         -5.2687   -5.3246   -0.4495 S.o2      1 <0>         2.5429
     28 O5         -6.1826   -4.6178    0.3779 O.2       1 <0>        -0.9257
     29 O6         -5.1502   -6.7391   -0.3838 O.2       1 <0>        -0.9049
     30 O7         -3.8667   -4.7653   -0.1045 O.3       1 <0>        -0.5948
     31 N3         -4.5746   -2.4919   -2.9242 N.2       1 <0>        -0.5776
     32 O8         -1.5251   -4.5265   -1.1561 O.3       1 <0>        -0.5567
     33 Si2        -0.8951   -4.9409   -2.6023 Si        1 <0>         1.1153
     34 C19        -2.2748   -5.2414   -3.8176 C.3       1 <0>        -0.4970
     35 C20         0.1912   -3.5613   -3.2247 C.3       1 <0>        -0.4810
     36 C21         0.1179   -6.4933   -2.4165 C.3       1 <0>        -0.3520
     37 C22        -0.7742   -7.6263   -1.9053 C.3       1 <0>        -0.1269
     38 C23         0.7089   -6.8820   -3.7732 C.3       1 <0>        -0.1305
     39 C24         1.2510   -6.2465   -1.4185 C.3       1 <0>        -0.1216
     40 H2          1.0185    2.1254   -2.3423 H         1 <0>         0.0827
     41 H3         -0.5059    1.5354   -3.0468 H         1 <0>         0.0715
     42 H4         -0.5152    2.3619   -1.4704 H         1 <0>         0.0733
     43 H5         -1.8322   -0.0160   -1.2473 H         1 <0>         0.1799
     44 H6         -1.5691   -2.9518    0.8788 H         1 <0>         0.1639
     45 H7         -2.1512   -2.7974   -2.1334 H         1 <0>         0.0845
     46 H8         -4.9348   -1.7900   -0.3347 H         1 <0>         0.1366
     47 H9         -4.6474   -2.0490    2.1614 H         1 <0>         0.0784
     48 H10        -5.4409   -3.4475    1.3979 H         1 <0>         0.1295
     49 H11        -4.8294   -2.3501    4.3735 H         1 <0>         0.0793
     50 H12        -4.2090   -3.4069    5.6644 H         1 <0>         0.0841
     51 H13        -3.0847   -2.3981    4.7230 H         1 <0>         0.0850
     52 H14        -5.2344   -6.1868    2.6545 H         1 <0>         0.0811
     53 H15        -5.5652   -5.7972    4.3595 H         1 <0>         0.0875
     54 H16        -6.1856   -4.7404    3.0685 H         1 <0>         0.0912
     55 H17        -1.2115   -3.8235    4.7532 H         1 <0>         0.0473
     56 H18        -0.2603   -5.2699    4.3392 H         1 <0>         0.0507
     57 H19        -0.8807   -4.2131    3.0482 H         1 <0>         0.0602
     58 H20        -3.5831   -6.6381    5.3113 H         1 <0>         0.0535
     59 H21        -1.8385   -6.6860    5.6608 H         1 <0>         0.0545
     60 H22        -2.7897   -5.2396    6.0748 H         1 <0>         0.0521
     61 H23        -1.9945   -6.1761    1.9765 H         1 <0>         0.0678
     62 H24        -1.3741   -7.2329    3.2675 H         1 <0>         0.0503
     63 H25        -3.1187   -7.1850    2.9180 H         1 <0>         0.0495
     64 H26        -6.4095   -4.5469   -2.4831 H         1 <0>         0.1735
     65 H27        -4.0197   -1.7116   -2.7688 H         1 <0>         0.3576
     66 H28        -4.9111   -5.4614   -2.8775 H         1 <0>         0.1724
     67 H29        -2.8497   -4.3246   -3.9485 H         1 <0>         0.0797
     68 H30        -1.8547   -5.5468   -4.7759 H         1 <0>         0.0938
     69 H31        -2.9271   -6.0285   -3.4394 H         1 <0>         0.0894
     70 H32         0.9985   -3.3855   -2.5137 H         1 <0>         0.0857
     71 H33         0.6122   -3.8382   -4.1913 H         1 <0>         0.0930
     72 H34        -0.4014   -2.6530   -3.3334 H         1 <0>         0.0758
     73 H35        -1.5815   -7.8021   -2.6164 H         1 <0>         0.0524
     74 H36        -0.1815   -8.5346   -1.7966 H         1 <0>         0.0580
     75 H37        -1.1953   -7.3493   -0.9388 H         1 <0>         0.0658
     76 H38         1.3445   -6.0749   -4.1373 H         1 <0>         0.0535
     77 H39         1.3016   -7.7903   -3.6645 H         1 <0>         0.0609
     78 H40        -0.0983   -7.0579   -4.4842 H         1 <0>         0.0547
     79 H41         0.8300   -5.9696   -0.4520 H         1 <0>         0.0680
     80 H42         1.8437   -7.1548   -1.3098 H         1 <0>         0.0551
     81 H43         1.8866   -5.4394   -1.7826 H         1 <0>         0.0485
@<TRIPOS>BOND
     1    1    2 1
     2    1   40 1
     3    1   41 1
     4    1   42 1
     5    2    9 1
     6    2    3 2
     7    3    4 1
     8    3   43 1
     9    4    5 am
    10    4   11 1
    11    5    6 2
    12    5    7 am
    13    7    8 1
    14    7    9 am
    15    9   10 2
    16   11   15 1
    17   11   12 1
    18   11   44 1
    19   12   32 1
    20   12   45 1
    21   12   13 1
    22   13   25 1
    23   13   30 1
    24   13   14 1
    25   14   15 1
    26   14   16 1
    27   14   46 1
    28   16   17 1
    29   16   47 1
    30   16   48 1
    31   17   18 1
    32   18   19 1
    33   18   20 1
    34   18   21 1
    35   19   49 1
    36   19   50 1
    37   19   51 1
    38   20   52 1
    39   20   53 1
    40   20   54 1
    41   21   22 1
    42   21   23 1
    43   21   24 1
    44   22   55 1
    45   22   56 1
    46   22   57 1
    47   23   58 1
    48   23   59 1
    49   23   60 1
    50   24   61 1
    51   24   62 1
    52   24   63 1
    53   25   26 1
    54   25   31 2
    55   26   27 1
    56   26   64 1
    57   26   66 1
    58   27   28 2
    59   27   29 2
    60   27   30 1
    61   31   65 1
    62   32   33 1
    63   33   34 1
    64   33   35 1
    65   33   36 1
    66   34   67 1
    67   34   68 1
    68   34   69 1
    69   35   70 1
    70   35   71 1
    71   35   72 1
    72   36   37 1
    73   36   38 1
    74   36   39 1
    75   37   73 1
    76   37   74 1
    77   37   75 1
    78   38   76 1
    79   38   77 1
    80   38   78 1
    81   39   79 1
    82   39   80 1
    83   39   81 1
@<TRIPOS>MOLECULE
CHEMBL295246__6
   81    83     0     0     0
SMALL
USER_CHARGES

@<TRIPOS>ATOM
      1 C1          0.3277    1.1039   -1.3063 C.3       1 <0>        -0.0864
      2 C2          0.4058   -0.3291   -0.8465 C.2       1 <0>        -0.2537
      3 C3         -0.7188   -1.0142   -0.5483 C.2       1 <0>         0.1639
      4 N1         -0.6298   -2.3147   -0.1322 N.am      1 <0>        -0.5281
      5 C4          0.5678   -2.9169   -0.0170 C.2       1 <0>         0.6992
      6 O1          0.6239   -4.0732    0.3548 O.2       1 <0>        -0.5161
      7 N2          1.7046   -2.2576   -0.3081 N.am      1 <0>        -0.6573
      8 H1          2.5597   -2.7071   -0.2203 H         1 <0>         0.4338
      9 C5          1.6591   -0.9768   -0.7270 C.2       1 <0>         0.5535
     10 O2          2.6868   -0.3811   -0.9955 O.2       1 <0>        -0.5044
     11 C6         -1.8500   -3.0581    0.1913 C.3       1 <0>         0.2969
     12 C7         -2.4370   -3.7234   -1.0796 C.3       1 <0>         0.1006
     13 C8         -3.9318   -3.8738   -0.7058 C.3       1 <0>         0.0650
     14 C9         -4.1444   -2.8454    0.4219 C.3       1 <0>         0.0858
     15 O3         -2.8967   -2.1581    0.6143 O.3       1 <0>        -0.3321
     16 C10        -5.2313   -1.8473    0.0177 C.3       1 <0>         0.0647
     17 O4         -5.5034   -0.9701    1.1125 O.3       1 <0>        -0.5979
     18 Si1        -6.6521    0.1447    0.7996 Si        1 <0>         1.1325
     19 C11        -6.1137    1.2056   -0.6341 C.3       1 <0>        -0.4853
     20 C12        -8.2497   -0.7129    0.3720 C.3       1 <0>        -0.4866
     21 C13        -6.9048    1.2149    2.3035 C.3       1 <0>        -0.3663
     22 C14        -5.5928    1.9192    2.6546 C.3       1 <0>        -0.1226
     23 C15        -7.9824    2.2607    2.0100 C.3       1 <0>        -0.1277
     24 C16        -7.3470    0.3436    3.4809 C.3       1 <0>        -0.1242
     25 C17        -4.7804   -3.5050   -1.8941 C.2       1 <0>         0.1868
     26 C18        -5.7266   -4.6730   -2.1743 C.3       1 <0>        -0.6735
     27 S1         -5.6175   -5.5476   -0.5579 S.o2      1 <0>         2.5555
     28 O5         -6.4254   -4.9106    0.4223 O.2       1 <0>        -0.9198
     29 O6         -5.6428   -6.9570   -0.7377 O.2       1 <0>        -0.9037
     30 O7         -4.1546   -5.1927   -0.1955 O.3       1 <0>        -0.6239
     31 N3         -4.7206   -2.4092   -2.5517 N.2       1 <0>        -0.5911
     32 O8         -1.8379   -5.0001   -1.3099 O.3       1 <0>        -0.5671
     33 Si2        -1.3009   -5.2155   -2.8348 Si        1 <0>         1.1182
     34 C19        -2.7319   -5.0891   -4.0209 C.3       1 <0>        -0.4976
     35 C20        -0.0406   -3.9048   -3.2403 C.3       1 <0>        -0.4798
     36 C21        -0.5166   -6.8987   -2.9851 C.3       1 <0>        -0.3548
     37 C22        -1.5516   -7.9752   -2.6521 C.3       1 <0>        -0.1274
     38 C23        -0.0128   -7.1008   -4.4155 C.3       1 <0>        -0.1300
     39 C24         0.6587   -7.0026   -2.0110 C.3       1 <0>        -0.1229
     40 H2          1.3327    1.4784   -1.5008 H         1 <0>         0.0820
     41 H3         -0.2643    1.1607   -2.2197 H         1 <0>         0.0714
     42 H4         -0.1418    1.7092   -0.5308 H         1 <0>         0.0732
     43 H5         -1.6840   -0.5379   -0.6374 H         1 <0>         0.1840
     44 H6         -1.6509   -3.8040    0.9609 H         1 <0>         0.1471
     45 H7         -2.3159   -3.0765   -1.9485 H         1 <0>         0.1082
     46 H8         -4.4313   -3.3569    1.3407 H         1 <0>         0.1299
     47 H9         -4.8897   -1.2651   -0.8381 H         1 <0>         0.0941
     48 H10        -6.1395   -2.3875   -0.2495 H         1 <0>         0.0702
     49 H11        -5.9658    0.5795   -1.5140 H         1 <0>         0.0795
     50 H12        -6.8813    1.9506   -0.8432 H         1 <0>         0.0859
     51 H13        -5.1789    1.7073   -0.3839 H         1 <0>         0.0895
     52 H14        -8.5647   -1.3336    1.2108 H         1 <0>         0.0919
     53 H15        -9.0174    0.0322    0.1629 H         1 <0>         0.0873
     54 H16        -8.1018   -1.3390   -0.5079 H         1 <0>         0.0762
     55 H17        -5.2778    2.5399    1.8158 H         1 <0>         0.0519
     56 H18        -5.7407    2.5453    3.5345 H         1 <0>         0.0530
     57 H19        -4.8251    1.1741    2.8637 H         1 <0>         0.0597
     58 H20        -8.9171    1.7589    1.7598 H         1 <0>         0.0539
     59 H21        -8.1303    2.8868    2.8899 H         1 <0>         0.0561
     60 H22        -7.6674    2.8814    1.1712 H         1 <0>         0.0540
     61 H23        -6.5794   -0.4014    3.6900 H         1 <0>         0.0596
     62 H24        -7.4949    0.9697    4.3608 H         1 <0>         0.0535
     63 H25        -8.2817   -0.1581    3.2307 H         1 <0>         0.0525
     64 H26        -6.7408   -4.3249   -2.3704 H         1 <0>         0.1707
     65 H27        -5.3122   -2.2635   -3.3065 H         1 <0>         0.3755
     66 H28        -5.3585   -5.2962   -2.9893 H         1 <0>         0.1755
     67 H29        -3.1941   -4.1062   -3.9292 H         1 <0>         0.0773
     68 H30        -2.3722   -5.2278   -5.0404 H         1 <0>         0.0943
     69 H31        -3.4668   -5.8594   -3.7870 H         1 <0>         0.0879
     70 H32         0.7994   -3.9825   -2.5500 H         1 <0>         0.0872
     71 H33         0.3140   -4.0452   -4.2614 H         1 <0>         0.0931
     72 H34        -0.4978   -2.9198   -3.1467 H         1 <0>         0.0793
     73 H35        -2.3889   -7.9012   -3.3460 H         1 <0>         0.0521
     74 H36        -1.0928   -8.9600   -2.7400 H         1 <0>         0.0591
     75 H37        -1.9106   -7.8312   -1.6330 H         1 <0>         0.0648
     76 H38         0.7246   -6.3339   -4.6528 H         1 <0>         0.0543
     77 H39         0.4460   -8.0856   -4.5034 H         1 <0>         0.0610
     78 H40        -0.8501   -7.0268   -5.1095 H         1 <0>         0.0543
     79 H41         0.2997   -6.8586   -0.9919 H         1 <0>         0.0666
     80 H42         1.1175   -7.9874   -2.0989 H         1 <0>         0.0561
     81 H43         1.3960   -6.2357   -2.2482 H         1 <0>         0.0504
@<TRIPOS>BOND
     1    1    2 1
     2    1   40 1
     3    1   41 1
     4    1   42 1
     5    2    9 1
     6    2    3 2
     7    3    4 1
     8    3   43 1
     9    4    5 am
    10    4   11 1
    11    5    6 2
    12    5    7 am
    13    7    8 1
    14    7    9 am
    15    9   10 2
    16   11   15 1
    17   11   12 1
    18   11   44 1
    19   12   32 1
    20   12   45 1
    21   12   13 1
    22   13   25 1
    23   13   30 1
    24   13   14 1
    25   14   15 1
    26   14   16 1
    27   14   46 1
    28   16   17 1
    29   16   47 1
    30   16   48 1
    31   17   18 1
    32   18   19 1
    33   18   20 1
    34   18   21 1
    35   19   49 1
    36   19   50 1
    37   19   51 1
    38   20   52 1
    39   20   53 1
    40   20   54 1
    41   21   22 1
    42   21   23 1
    43   21   24 1
    44   22   55 1
    45   22   56 1
    46   22   57 1
    47   23   58 1
    48   23   59 1
    49   23   60 1
    50   24   61 1
    51   24   62 1
    52   24   63 1
    53   25   26 1
    54   25   31 2
    55   26   27 1
    56   26   64 1
    57   26   66 1
    58   27   28 2
    59   27   29 2
    60   27   30 1
    61   31   65 1
    62   32   33 1
    63   33   34 1
    64   33   35 1
    65   33   36 1
    66   34   67 1
    67   34   68 1
    68   34   69 1
    69   35   70 1
    70   35   71 1
    71   35   72 1
    72   36   37 1
    73   36   38 1
    74   36   39 1
    75   37   73 1
    76   37   74 1
    77   37   75 1
    78   38   76 1
    79   38   77 1
    80   38   78 1
    81   39   79 1
    82   39   80 1
    83   39   81 1
@<TRIPOS>MOLECULE
CHEMBL295246__7
   81    83     0     0     0
SMALL
USER_CHARGES

@<TRIPOS>ATOM
      1 C1          0.3291    1.1033   -1.3043 C.3       1 <0>        -0.0883
      2 C2          0.4069   -0.3299   -0.8450 C.2       1 <0>        -0.2472
      3 C3         -0.7179   -1.0149   -0.5470 C.2       1 <0>         0.1554
      4 N1         -0.6292   -2.3155   -0.1313 N.am      1 <0>        -0.5293
      5 C4          0.5683   -2.9181   -0.0163 C.2       1 <0>         0.6997
      6 O1          0.6242   -4.0744    0.3552 O.2       1 <0>        -0.5136
      7 N2          1.7052   -2.2589   -0.3072 N.am      1 <0>        -0.6567
      8 H1          2.5602   -2.7086   -0.2194 H         1 <0>         0.4347
      9 C5          1.6600   -0.9779   -0.7257 C.2       1 <0>         0.5531
     10 O2          2.6878   -0.3824   -0.9940 O.2       1 <0>        -0.5014
     11 C6         -1.8495   -3.0588    0.1920 C.3       1 <0>         0.2964
     12 C7         -2.4366   -3.7236   -1.0792 C.3       1 <0>         0.0968
     13 C8         -3.9315   -3.8738   -0.7055 C.3       1 <0>         0.0081
     14 C9         -4.1439   -2.8457    0.4225 C.3       1 <0>         0.0742
     15 O3         -2.8960   -2.1587    0.6151 O.3       1 <0>        -0.3369
     16 C10        -5.2305   -1.8472    0.0185 C.3       1 <0>         0.0673
     17 O4         -5.5025   -0.9703    1.1135 O.3       1 <0>        -0.5962
     18 Si1        -6.6509    0.1449    0.8009 Si        1 <0>         1.1274
     19 C11        -6.1123    1.2060   -0.6324 C.3       1 <0>        -0.4866
     20 C12        -8.2488   -0.7122    0.3730 C.3       1 <0>        -0.4835
     21 C13        -6.9036    1.2147    2.3051 C.3       1 <0>        -0.3647
     22 C14        -5.5913    1.9186    2.6565 C.3       1 <0>        -0.1224
     23 C15        -7.9809    2.2608    2.0118 C.3       1 <0>        -0.1287
     24 C16        -7.3459    0.3432    3.4823 C.3       1 <0>        -0.1245
     25 C17        -4.7800   -3.5045   -1.8937 C.2       1 <0>         0.1916
     26 C18        -5.7264   -4.6722   -2.1743 C.3       1 <0>        -0.6053
     27 S1         -5.6176   -5.5473   -0.5581 S.o2      1 <0>         2.5538
     28 O5         -6.4253   -4.9104    0.4223 O.2       1 <0>        -0.9212
     29 O6         -5.6431   -6.9566   -0.7383 O.2       1 <0>        -0.9027
     30 O7         -4.1546   -5.1928   -0.1956 O.3       1 <0>        -0.6248
     31 N3         -4.7199   -2.4085   -2.5510 N.2       1 <0>        -0.5777
     32 O8         -1.8378   -5.0004   -1.3098 O.3       1 <0>        -0.5626
     33 Si2        -1.3009   -5.2155   -2.8348 Si        1 <0>         1.1113
     34 C19        -2.7320   -5.0888   -4.0208 C.3       1 <0>        -0.4953
     35 C20        -0.0405   -3.9048   -3.2401 C.3       1 <0>        -0.4798
     36 C21        -0.5167   -6.8988   -2.9854 C.3       1 <0>        -0.3515
     37 C22        -1.5518   -7.9752   -2.6526 C.3       1 <0>        -0.1281
     38 C23        -0.0130   -7.1006   -4.4160 C.3       1 <0>        -0.1309
     39 C24         0.6586   -7.0029   -2.0115 C.3       1 <0>        -0.1228
     40 H2          1.3342    1.4776   -1.4986 H         1 <0>         0.0836
     41 H3         -0.2629    1.1604   -2.2177 H         1 <0>         0.0721
     42 H4         -0.1403    1.7084   -0.5286 H         1 <0>         0.0744
     43 H5         -1.6829   -0.5383   -0.6360 H         1 <0>         0.1803
     44 H6         -1.6506   -3.8049    0.9613 H         1 <0>         0.1502
     45 H7         -2.3154   -3.0765   -1.9479 H         1 <0>         0.0908
     46 H8         -4.4309   -3.3573    1.3411 H         1 <0>         0.1367
     47 H9         -4.8888   -1.2648   -0.8371 H         1 <0>         0.0624
     48 H10        -6.1389   -2.3871   -0.2489 H         1 <0>         0.0843
     49 H11        -5.9645    0.5801   -1.5125 H         1 <0>         0.0797
     50 H12        -6.8798    1.9513   -0.8414 H         1 <0>         0.0883
     51 H13        -5.1774    1.7075   -0.3821 H         1 <0>         0.0894
     52 H14        -8.5639   -1.3331    1.2117 H         1 <0>         0.0935
     53 H15        -9.0162    0.0330    0.1641 H         1 <0>         0.0887
     54 H16        -8.1010   -1.3381   -0.5070 H         1 <0>         0.0812
     55 H17        -5.2762    2.5394    1.8179 H         1 <0>         0.0518
     56 H18        -5.7391    2.5445    3.5366 H         1 <0>         0.0538
     57 H19        -4.8239    1.1733    2.8654 H         1 <0>         0.0593
     58 H20        -8.9157    1.7593    1.7615 H         1 <0>         0.0546
     59 H21        -8.1287    2.8867    2.8919 H         1 <0>         0.0569
     60 H22        -7.6657    2.8816    1.1732 H         1 <0>         0.0542
     61 H23        -6.5785   -0.4021    3.6912 H         1 <0>         0.0596
     62 H24        -7.4937    0.9691    4.3623 H         1 <0>         0.0542
     63 H25        -8.2808   -0.1583    3.2319 H         1 <0>         0.0532
     64 H26        -6.7405   -4.3238   -2.3703 H         1 <0>         0.1769
     65 H27        -4.0827   -1.7235   -2.2947 H         1 <0>         0.3582
     66 H28        -5.3583   -5.2953   -2.9894 H         1 <0>         0.1768
     67 H29        -3.1940   -4.1058   -3.9289 H         1 <0>         0.0807
     68 H30        -2.3723   -5.2273   -5.0404 H         1 <0>         0.0952
     69 H31        -3.4670   -5.8590   -3.7869 H         1 <0>         0.0908
     70 H32         0.7995   -3.9826   -2.5498 H         1 <0>         0.0876
     71 H33         0.3142   -4.0452   -4.2612 H         1 <0>         0.0940
     72 H34        -0.4977   -2.9198   -3.1465 H         1 <0>         0.0764
     73 H35        -2.3892   -7.9010   -3.3465 H         1 <0>         0.0534
     74 H36        -1.0931   -8.9600   -2.7407 H         1 <0>         0.0598
     75 H37        -1.9107   -7.8314   -1.6334 H         1 <0>         0.0650
     76 H38         0.7244   -6.3337   -4.6531 H         1 <0>         0.0542
     77 H39         0.4457   -8.0854   -4.5041 H         1 <0>         0.0618
     78 H40        -0.8504   -7.0264   -5.1099 H         1 <0>         0.0553
     79 H41         0.2998   -6.8591   -0.9923 H         1 <0>         0.0665
     80 H42         1.1174   -7.9877   -2.0996 H         1 <0>         0.0569
     81 H43         1.3960   -6.2360   -2.2486 H         1 <0>         0.0501
@<TRIPOS>BOND
     1    1    2 1
     2    1   40 1
     3    1   41 1
     4    1   42 1
     5    2    9 1
     6    2    3 2
     7    3    4 1
     8    3   43 1
     9    4    5 am
    10    4   11 1
    11    5    6 2
    12    5    7 am
    13    7    8 1
    14    7    9 am
    15    9   10 2
    16   11   15 1
    17   11   12 1
    18   11   44 1
    19   12   32 1
    20   12   45 1
    21   12   13 1
    22   13   25 1
    23   13   30 1
    24   13   14 1
    25   14   15 1
    26   14   16 1
    27   14   46 1
    28   16   17 1
    29   16   47 1
    30   16   48 1
    31   17   18 1
    32   18   19 1
    33   18   20 1
    34   18   21 1
    35   19   49 1
    36   19   50 1
    37   19   51 1
    38   20   52 1
    39   20   53 1
    40   20   54 1
    41   21   22 1
    42   21   23 1
    43   21   24 1
    44   22   55 1
    45   22   56 1
    46   22   57 1
    47   23   58 1
    48   23   59 1
    49   23   60 1
    50   24   61 1
    51   24   62 1
    52   24   63 1
    53   25   26 1
    54   25   31 2
    55   26   27 1
    56   26   64 1
    57   26   66 1
    58   27   28 2
    59   27   29 2
    60   27   30 1
    61   31   65 1
    62   32   33 1
    63   33   34 1
    64   33   35 1
    65   33   36 1
    66   34   67 1
    67   34   68 1
    68   34   69 1
    69   35   70 1
    70   35   71 1
    71   35   72 1
    72   36   37 1
    73   36   38 1
    74   36   39 1
    75   37   73 1
    76   37   74 1
    77   37   75 1
    78   38   76 1
    79   38   77 1
    80   38   78 1
    81   39   79 1
    82   39   80 1
    83   39   81 1
@<TRIPOS>MOLECULE
CHEMBL295246__8
   81    83     0     0     0
SMALL
USER_CHARGES

@<TRIPOS>ATOM
      1 C1         -3.4349    1.2986   -1.5266 C.3       1 <0>        -0.0871
      2 C2         -2.6719    0.0665   -1.1132 C.2       1 <0>        -0.2496
      3 C3         -3.3235   -1.0881   -0.8579 C.2       1 <0>         0.1522
      4 N1         -2.6152   -2.1975   -0.4836 N.am      1 <0>        -0.5262
      5 C4         -1.2757   -2.1482   -0.3672 C.2       1 <0>         0.7130
      6 O1         -0.6661   -3.1457   -0.0328 O.2       1 <0>        -0.5319
      7 N2         -0.6010   -1.0105   -0.6160 N.am      1 <0>        -0.6555
      8 H1          0.3648   -0.9926   -0.5279 H         1 <0>         0.4326
      9 C5         -1.2617    0.1028   -0.9930 C.2       1 <0>         0.5531
     10 O2         -0.6515    1.1312   -1.2234 O.2       1 <0>        -0.5076
     11 C6         -3.3221   -3.4504   -0.2065 C.3       1 <0>         0.2839
     12 C7         -3.0600   -4.4759   -1.3317 C.3       1 <0>         0.0696
     13 C8         -4.2618   -4.3005   -2.2867 C.3       1 <0>         0.0193
     14 C9         -5.1081   -3.1903   -1.6256 C.3       1 <0>         0.0704
     15 O3         -4.7504   -3.2370   -0.2271 O.3       1 <0>        -0.3221
     16 C10        -6.5998   -3.4804   -1.8038 C.3       1 <0>         0.0730
     17 O4         -7.3624   -2.3870   -1.2892 O.3       1 <0>        -0.6047
     18 Si1        -8.9761   -2.5820   -1.4241 Si        1 <0>         1.1298
     19 C11        -9.4307   -2.7720   -3.2207 C.3       1 <0>        -0.4865
     20 C12        -9.4979   -4.1054   -0.4870 C.3       1 <0>        -0.4824
     21 C13        -9.8429   -1.0916   -0.7184 C.3       1 <0>        -0.3648
     22 C14        -9.4144    0.1595   -1.4879 C.3       1 <0>        -0.1233
     23 C15       -11.3566   -1.2746   -0.8449 C.3       1 <0>        -0.1294
     24 C16        -9.4696   -0.9356    0.7571 C.3       1 <0>        -0.1226
     25 C17        -5.0567   -5.5786   -2.3320 C.2       1 <0>         0.1908
     26 C18        -5.0635   -6.0744   -3.7786 C.3       1 <0>        -0.6049
     27 S1         -3.6439   -5.1059   -4.4392 S.o2      1 <0>         2.5394
     28 O5         -2.4062   -5.6967   -4.0672 O.2       1 <0>        -0.8983
     29 O6         -3.8920   -4.6818   -5.7725 O.2       1 <0>        -0.9169
     30 O7         -3.7903   -3.8412   -3.5579 O.3       1 <0>        -0.6295
     31 N3         -5.6248   -6.1485   -1.3373 N.2       1 <0>        -0.5772
     32 O8         -1.8364   -4.1770   -2.0066 O.3       1 <0>        -0.5787
     33 Si2        -0.6308   -5.2294   -1.6915 Si        1 <0>         1.1577
     34 C19        -0.4999   -5.4910    0.1484 C.3       1 <0>        -0.4553
     35 C20        -0.9922   -6.8555   -2.5257 C.3       1 <0>        -0.4747
     36 C21         0.9766   -4.5438   -2.3372 C.3       1 <0>        -0.3569
     37 C22         1.2734   -3.2084   -1.6521 C.3       1 <0>        -0.1204
     38 C23         2.1075   -5.5311   -2.0416 C.3       1 <0>        -0.1278
     39 C24         0.8691   -4.3290   -3.8482 C.3       1 <0>        -0.1193
     40 H2         -2.7374    2.1199   -1.6907 H         1 <0>         0.0819
     41 H3         -3.9807    1.0958   -2.4481 H         1 <0>         0.0713
     42 H4         -4.1385    1.5712   -0.7400 H         1 <0>         0.0717
     43 H5         -4.3986   -1.1359   -0.9483 H         1 <0>         0.1826
     44 H6         -3.0127   -3.8547    0.7573 H         1 <0>         0.1575
     45 H7         -3.0350   -5.4880   -0.9278 H         1 <0>         0.1019
     46 H8         -4.8565   -2.2182   -2.0495 H         1 <0>         0.1297
     47 H9         -6.8206   -3.6107   -2.8632 H         1 <0>         0.0791
     48 H10        -6.8599   -4.3908   -1.2638 H         1 <0>         0.0700
     49 H11        -8.9235   -3.6440   -3.6336 H         1 <0>         0.0800
     50 H12       -10.5091   -2.9024   -3.3108 H         1 <0>         0.0891
     51 H13        -9.1254   -1.8807   -3.7690 H         1 <0>         0.0915
     52 H14        -9.2319   -3.9942    0.5642 H         1 <0>         0.0902
     53 H15       -10.5763   -4.2357   -0.5772 H         1 <0>         0.0883
     54 H16        -8.9907   -4.9774   -0.8999 H         1 <0>         0.0812
     55 H17        -9.6803    0.0483   -2.5391 H         1 <0>         0.0527
     56 H18        -9.9215    1.0315   -1.0751 H         1 <0>         0.0547
     57 H19        -8.3359    0.2898   -1.3978 H         1 <0>         0.0590
     58 H20       -11.6619   -2.1658   -0.2967 H         1 <0>         0.0542
     59 H21       -11.8638   -0.4026   -0.4320 H         1 <0>         0.0573
     60 H22       -11.6226   -1.3857   -1.8961 H         1 <0>         0.0546
     61 H23        -8.3912   -0.8052    0.8472 H         1 <0>         0.0591
     62 H24        -9.9767   -0.0635    1.1700 H         1 <0>         0.0542
     63 H25        -9.7749   -1.8268    1.3054 H         1 <0>         0.0518
     64 H26        -4.8730   -7.1463   -3.8324 H         1 <0>         0.1723
     65 H27        -5.5632   -5.7550   -0.4529 H         1 <0>         0.3633
     66 H28        -5.9930   -5.8126   -4.2842 H         1 <0>         0.1692
     67 H29        -1.4807   -5.3582    0.6050 H         1 <0>         0.0719
     68 H30        -0.1402   -6.5005    0.3472 H         1 <0>         0.0668
     69 H31         0.1979   -4.7671    0.5696 H         1 <0>         0.1099
     70 H32        -1.0688   -6.7025   -3.6022 H         1 <0>         0.1353
     71 H33        -0.1865   -7.5588   -2.3152 H         1 <0>         0.0693
     72 H34        -1.9326   -7.2566   -2.1479 H         1 <0>         0.0679
     73 H35         1.3500   -3.3614   -0.5756 H         1 <0>         0.0694
     74 H36         2.2138   -2.8073   -2.0299 H         1 <0>         0.0433
     75 H37         0.4677   -2.5050   -1.8626 H         1 <0>         0.0483
     76 H38         1.8961   -6.4825   -2.5297 H         1 <0>         0.0527
     77 H39         3.0480   -5.1299   -2.4195 H         1 <0>         0.0541
     78 H40         2.1841   -5.6841   -0.9652 H         1 <0>         0.0529
     79 H41         0.0634   -3.6257   -4.0588 H         1 <0>         0.0532
     80 H42         1.8095   -3.9279   -4.2260 H         1 <0>         0.0491
     81 H43         0.6576   -5.2804   -4.3363 H         1 <0>         0.0561
@<TRIPOS>BOND
     1    1    2 1
     2    1   40 1
     3    1   41 1
     4    1   42 1
     5    2    9 1
     6    2    3 2
     7    3    4 1
     8    3   43 1
     9    4    5 am
    10    4   11 1
    11    5    6 2
    12    5    7 am
    13    7    8 1
    14    7    9 am
    15    9   10 2
    16   11   15 1
    17   11   12 1
    18   11   44 1
    19   12   32 1
    20   12   45 1
    21   12   13 1
    22   13   25 1
    23   13   30 1
    24   13   14 1
    25   14   15 1
    26   14   16 1
    27   14   46 1
    28   16   17 1
    29   16   47 1
    30   16   48 1
    31   17   18 1
    32   18   19 1
    33   18   20 1
    34   18   21 1
    35   19   49 1
    36   19   50 1
    37   19   51 1
    38   20   52 1
    39   20   53 1
    40   20   54 1
    41   21   22 1
    42   21   23 1
    43   21   24 1
    44   22   55 1
    45   22   56 1
    46   22   57 1
    47   23   58 1
    48   23   59 1
    49   23   60 1
    50   24   61 1
    51   24   62 1
    52   24   63 1
    53   25   26 1
    54   25   31 2
    55   26   27 1
    56   26   64 1
    57   26   66 1
    58   27   28 2
    59   27   29 2
    60   27   30 1
    61   31   65 1
    62   32   33 1
    63   33   34 1
    64   33   35 1
    65   33   36 1
    66   34   67 1
    67   34   68 1
    68   34   69 1
    69   35   70 1
    70   35   71 1
    71   35   72 1
    72   36   37 1
    73   36   38 1
    74   36   39 1
    75   37   73 1
    76   37   74 1
    77   37   75 1
    78   38   76 1
    79   38   77 1
    80   38   78 1
    81   39   79 1
    82   39   80 1
    83   39   81 1
@<TRIPOS>MOLECULE
CHEMBL295246__9
   81    83     0     0     0
SMALL
USER_CHARGES

@<TRIPOS>ATOM
      1 C1         -3.4349    1.2986   -1.5266 C.3       1 <0>        -0.0865
      2 C2         -2.6719    0.0665   -1.1132 C.2       1 <0>        -0.2529
      3 C3         -3.3235   -1.0881   -0.8579 C.2       1 <0>         0.1543
      4 N1         -2.6152   -2.1975   -0.4836 N.am      1 <0>        -0.5276
      5 C4         -1.2757   -2.1482   -0.3672 C.2       1 <0>         0.7126
      6 O1         -0.6661   -3.1457   -0.0328 O.2       1 <0>        -0.5327
      7 N2         -0.6010   -1.0105   -0.6160 N.am      1 <0>        -0.6560
      8 H1          0.3648   -0.9926   -0.5279 H         1 <0>         0.4320
      9 C5         -1.2617    0.1028   -0.9930 C.2       1 <0>         0.5535
     10 O2         -0.6515    1.1312   -1.2234 O.2       1 <0>        -0.5096
     11 C6         -3.3221   -3.4504   -0.2065 C.3       1 <0>         0.2878
     12 C7         -3.0600   -4.4759   -1.3317 C.3       1 <0>         0.0784
     13 C8         -4.2618   -4.3005   -2.2867 C.3       1 <0>         0.0754
     14 C9         -5.1081   -3.1903   -1.6256 C.3       1 <0>         0.0835
     15 O3         -4.7504   -3.2370   -0.2271 O.3       1 <0>        -0.3077
     16 C10        -6.5998   -3.4804   -1.8038 C.3       1 <0>         0.0722
     17 O4         -7.3624   -2.3870   -1.2892 O.3       1 <0>        -0.6039
     18 Si1        -8.9761   -2.5820   -1.4241 Si        1 <0>         1.1331
     19 C11        -9.4307   -2.7720   -3.2207 C.3       1 <0>        -0.4891
     20 C12        -9.4979   -4.1054   -0.4870 C.3       1 <0>        -0.4813
     21 C13        -9.8429   -1.0916   -0.7184 C.3       1 <0>        -0.3654
     22 C14        -9.4144    0.1595   -1.4879 C.3       1 <0>        -0.1233
     23 C15       -11.3566   -1.2746   -0.8449 C.3       1 <0>        -0.1287
     24 C16        -9.4696   -0.9356    0.7571 C.3       1 <0>        -0.1229
     25 C17        -5.0567   -5.5786   -2.3320 C.2       1 <0>         0.1848
     26 C18        -5.0635   -6.0744   -3.7786 C.3       1 <0>        -0.6736
     27 S1         -3.6439   -5.1059   -4.4392 S.o2      1 <0>         2.5406
     28 O5         -2.4062   -5.6967   -4.0672 O.2       1 <0>        -0.8961
     29 O6         -3.8920   -4.6818   -5.7725 O.2       1 <0>        -0.9176
     30 O7         -3.7903   -3.8412   -3.5579 O.3       1 <0>        -0.6280
     31 N3         -5.6248   -6.1485   -1.3373 N.2       1 <0>        -0.5818
     32 O8         -1.8364   -4.1770   -2.0066 O.3       1 <0>        -0.5835
     33 Si2        -0.6308   -5.2294   -1.6915 Si        1 <0>         1.1613
     34 C19        -0.4999   -5.4910    0.1484 C.3       1 <0>        -0.4555
     35 C20        -0.9922   -6.8555   -2.5257 C.3       1 <0>        -0.4764
     36 C21         0.9766   -4.5438   -2.3372 C.3       1 <0>        -0.3585
     37 C22         1.2734   -3.2084   -1.6521 C.3       1 <0>        -0.1205
     38 C23         2.1075   -5.5311   -2.0416 C.3       1 <0>        -0.1272
     39 C24         0.8691   -4.3290   -3.8482 C.3       1 <0>        -0.1190
     40 H2         -2.7374    2.1199   -1.6907 H         1 <0>         0.0813
     41 H3         -3.9807    1.0958   -2.4481 H         1 <0>         0.0707
     42 H4         -4.1385    1.5712   -0.7400 H         1 <0>         0.0713
     43 H5         -4.3986   -1.1359   -0.9483 H         1 <0>         0.1829
     44 H6         -3.0127   -3.8547    0.7573 H         1 <0>         0.1565
     45 H7         -3.0350   -5.4880   -0.9278 H         1 <0>         0.1081
     46 H8         -4.8565   -2.2182   -2.0495 H         1 <0>         0.1231
     47 H9         -6.8206   -3.6107   -2.8632 H         1 <0>         0.0693
     48 H10        -6.8599   -4.3908   -1.2638 H         1 <0>         0.0856
     49 H11        -8.9235   -3.6440   -3.6336 H         1 <0>         0.0769
     50 H12       -10.5091   -2.9024   -3.3108 H         1 <0>         0.0881
     51 H13        -9.1254   -1.8807   -3.7690 H         1 <0>         0.0906
     52 H14        -9.2319   -3.9942    0.5642 H         1 <0>         0.0909
     53 H15       -10.5763   -4.2357   -0.5772 H         1 <0>         0.0867
     54 H16        -8.9907   -4.9774   -0.8999 H         1 <0>         0.0777
     55 H17        -9.6803    0.0483   -2.5391 H         1 <0>         0.0522
     56 H18        -9.9215    1.0315   -1.0751 H         1 <0>         0.0544
     57 H19        -8.3359    0.2898   -1.3978 H         1 <0>         0.0593
     58 H20       -11.6619   -2.1658   -0.2967 H         1 <0>         0.0539
     59 H21       -11.8638   -0.4026   -0.4320 H         1 <0>         0.0569
     60 H22       -11.6226   -1.3857   -1.8961 H         1 <0>         0.0541
     61 H23        -8.3912   -0.8052    0.8472 H         1 <0>         0.0598
     62 H24        -9.9767   -0.0635    1.1700 H         1 <0>         0.0537
     63 H25        -9.7749   -1.8268    1.3054 H         1 <0>         0.0518
     64 H26        -4.8730   -7.1463   -3.8324 H         1 <0>         0.1663
     65 H27        -6.1170   -6.9742   -1.4676 H         1 <0>         0.3719
     66 H28        -5.9930   -5.8126   -4.2842 H         1 <0>         0.1676
     67 H29        -1.4807   -5.3582    0.6050 H         1 <0>         0.0743
     68 H30        -0.1402   -6.5005    0.3472 H         1 <0>         0.0660
     69 H31         0.1979   -4.7671    0.5696 H         1 <0>         0.1096
     70 H32        -1.0688   -6.7025   -3.6022 H         1 <0>         0.1335
     71 H33        -0.1865   -7.5588   -2.3152 H         1 <0>         0.0688
     72 H34        -1.9326   -7.2566   -2.1479 H         1 <0>         0.0655
     73 H35         1.3500   -3.3614   -0.5756 H         1 <0>         0.0696
     74 H36         2.2138   -2.8073   -2.0299 H         1 <0>         0.0426
     75 H37         0.4677   -2.5050   -1.8626 H         1 <0>         0.0487
     76 H38         1.8961   -6.4825   -2.5297 H         1 <0>         0.0520
     77 H39         3.0480   -5.1299   -2.4195 H         1 <0>         0.0535
     78 H40         2.1841   -5.6841   -0.9652 H         1 <0>         0.0530
     79 H41         0.0634   -3.6257   -4.0588 H         1 <0>         0.0531
     80 H42         1.8095   -3.9279   -4.2260 H         1 <0>         0.0486
     81 H43         0.6576   -5.2804   -4.3363 H         1 <0>         0.0553
@<TRIPOS>BOND
     1    1    2 1
     2    1   40 1
     3    1   41 1
     4    1   42 1
     5    2    9 1
     6    2    3 2
     7    3    4 1
     8    3   43 1
     9    4    5 am
    10    4   11 1
    11    5    6 2
    12    5    7 am
    13    7    8 1
    14    7    9 am
    15    9   10 2
    16   11   15 1
    17   11   12 1
    18   11   44 1
    19   12   32 1
    20   12   45 1
    21   12   13 1
    22   13   25 1
    23   13   30 1
    24   13   14 1
    25   14   15 1
    26   14   16 1
    27   14   46 1
    28   16   17 1
    29   16   47 1
    30   16   48 1
    31   17   18 1
    32   18   19 1
    33   18   20 1
    34   18   21 1
    35   19   49 1
    36   19   50 1
    37   19   51 1
    38   20   52 1
    39   20   53 1
    40   20   54 1
    41   21   22 1
    42   21   23 1
    43   21   24 1
    44   22   55 1
    45   22   56 1
    46   22   57 1
    47   23   58 1
    48   23   59 1
    49   23   60 1
    50   24   61 1
    51   24   62 1
    52   24   63 1
    53   25   26 1
    54   25   31 2
    55   26   27 1
    56   26   64 1
    57   26   66 1
    58   27   28 2
    59   27   29 2
    60   27   30 1
    61   31   65 1
    62   32   33 1
    63   33   34 1
    64   33   35 1
    65   33   36 1
    66   34   67 1
    67   34   68 1
    68   34   69 1
    69   35   70 1
    70   35   71 1
    71   35   72 1
    72   36   37 1
    73   36   38 1
    74   36   39 1
    75   37   73 1
    76   37   74 1
    77   37   75 1
    78   38   76 1
    79   38   77 1
    80   38   78 1
    81   39   79 1
    82   39   80 1
    83   39   81 1
@<TRIPOS>MOLECULE
CHEMBL295246__10
   81    83     0     0     0
SMALL
USER_CHARGES

@<TRIPOS>ATOM
      1 C1          0.7497    1.3991   -1.9284 C.3       1 <0>        -0.0841
      2 C2          0.5476   -0.0612   -1.6155 C.2       1 <0>        -0.2925
      3 C3         -0.6174   -0.4926   -1.0865 C.2       1 <0>         0.1205
      4 N1         -0.7842   -1.8220   -0.8084 N.am      1 <0>        -0.5269
      5 C4          0.2018   -2.7030   -1.0567 C.2       1 <0>         0.7108
      6 O1          0.0325   -3.8797   -0.8016 O.2       1 <0>        -0.5300
      7 N2          1.3729   -2.3003   -1.5840 N.am      1 <0>        -0.6548
      8 H1          2.0731   -2.9488   -1.7574 H         1 <0>         0.4346
      9 C5          1.5745   -0.9998   -1.8777 C.2       1 <0>         0.5526
     10 O2          2.6318   -0.6353   -2.3595 O.2       1 <0>        -0.5070
     11 C6         -2.0482   -2.2902   -0.2345 C.3       1 <0>         0.2588
     12 C7         -2.7727   -3.2457   -1.2165 C.3       1 <0>         0.0809
     13 C8         -4.2496   -3.1078   -0.7728 C.3       1 <0>        -0.0959
     14 C9         -4.2932   -1.7651   -0.0180 C.3       1 <0>         0.0546
     15 O3         -2.9758   -1.1939   -0.0853 O.3       1 <0>        -0.3080
     16 C10        -5.3018   -0.8266   -0.6836 C.3       1 <0>        -0.0191
     17 O4         -5.5129    0.3145    0.1503 O.3       1 <0>        -0.6161
     18 Si1        -6.4744    1.4524   -0.5135 Si        1 <0>         1.1352
     19 C11        -5.7877    1.9561   -2.1704 C.3       1 <0>        -0.5022
     20 C12        -8.1906    0.7625   -0.7363 C.3       1 <0>        -0.4927
     21 C13        -6.5433    2.9385    0.6080 C.3       1 <0>        -0.3662
     22 C14        -5.1339    3.5051    0.7909 C.3       1 <0>        -0.1244
     23 C15        -7.4452    4.0060   -0.0148 C.3       1 <0>        -0.1303
     24 C16        -7.1073    2.5248    1.9687 C.3       1 <0>        -0.1248
     25 C17        -4.5910   -4.2306    0.1710 C.2       1 <0>         0.2186
     26 C18        -5.7283   -5.0388   -0.4548 C.3       1 <0>        -0.5894
     27 S1         -5.5828   -4.4686   -2.1994 S.o2      1 <0>         2.3306
     28 O5         -4.5194   -5.1342   -2.8666 O.2       1 <0>        -0.9331
     29 O6         -6.8635   -4.3304   -2.7994 O.2       1 <0>        -0.9411
     30 O7         -5.0805   -3.0278   -1.9358 O.3       1 <0>        -0.4797
     31 N3         -4.0293   -4.4665    1.2961 N.2       1 <0>        -0.5797
     32 O8         -2.6036   -2.8125   -2.5677 O.3       1 <0>        -0.5531
     33 Si2        -3.3424   -1.3990   -2.9086 Si        1 <0>         1.1098
     34 C19        -5.1460   -1.5161   -2.4567 C.3       1 <0>        -0.5445
     35 C20        -2.5446   -0.0294   -1.9295 C.3       1 <0>        -0.6408
     36 C21        -3.1805   -1.0368   -4.7288 C.3       1 <0>        -0.3481
     37 C22        -3.8357   -2.1616   -5.5329 C.3       1 <0>        -0.1347
     38 C23        -3.8735    0.2893   -5.0486 C.3       1 <0>        -0.1337
     39 C24        -1.6993   -0.9406   -5.0999 C.3       1 <0>        -0.1296
     40 H2          1.7441    1.5461   -2.3499 H         1 <0>         0.0821
     41 H3         -0.0017    1.7238   -2.6481 H         1 <0>         0.0678
     42 H4          0.6529    1.9835   -1.0134 H         1 <0>         0.0725
     43 H5         -1.4136    0.2082   -0.8835 H         1 <0>         0.2498
     44 H6         -1.8752   -2.7798    0.7239 H         1 <0>         0.1366
     45 H7         -2.4226   -4.2704   -1.0917 H         1 <0>         0.1638
     46 H8         -4.5714   -1.9337    1.0224 H         1 <0>         0.1326
     47 H9         -4.9147   -0.5038   -1.6500 H         1 <0>         0.1595
     48 H10        -6.2463   -1.3513   -0.8274 H         1 <0>         0.0936
     49 H11        -5.8302    1.1084   -2.8543 H         1 <0>         0.0811
     50 H12        -6.3786    2.7784   -2.5739 H         1 <0>         0.0956
     51 H13        -4.7525    2.2763   -2.0526 H         1 <0>         0.0946
     52 H14        -8.5923    0.4678    0.2332 H         1 <0>         0.0901
     53 H15        -8.8331    1.5230   -1.1799 H         1 <0>         0.0902
     54 H16        -8.1503   -0.1070   -1.3924 H         1 <0>         0.0838
     55 H17        -4.7321    3.7998   -0.1785 H         1 <0>         0.0536
     56 H18        -5.1742    4.3746    1.4470 H         1 <0>         0.0536
     57 H19        -4.4913    2.7446    1.2345 H         1 <0>         0.0600
     58 H20        -8.4493    3.6023   -0.1451 H         1 <0>         0.0547
     59 H21        -7.4855    4.8754    0.6414 H         1 <0>         0.0568
     60 H22        -7.0435    4.3007   -0.9842 H         1 <0>         0.0555
     61 H23        -6.4647    1.7643    2.4124 H         1 <0>         0.0585
     62 H24        -7.1475    3.3943    2.6249 H         1 <0>         0.0541
     63 H25        -8.1113    2.1211    1.8384 H         1 <0>         0.0523
     64 H26        -5.5477   -6.1105   -0.3705 H         1 <0>         0.1610
     65 H27        -3.3118   -3.8939    1.6095 H         1 <0>         0.3535
     66 H28        -6.6927   -4.7658   -0.0264 H         1 <0>         0.1657
     67 H29        -5.2415   -1.8857   -1.4357 H         1 <0>         0.2580
     68 H30        -5.6038   -0.5297   -2.5304 H         1 <0>         0.1265
     69 H31        -5.6479   -2.2015   -3.1396 H         1 <0>         0.1111
     70 H32        -1.5172    0.1075   -2.2669 H         1 <0>         0.1239
     71 H33        -3.1020    0.8955   -2.0777 H         1 <0>         0.1113
     72 H34        -2.5478   -0.2899   -0.8711 H         1 <0>         0.2233
     73 H35        -4.8909   -2.2301   -5.2685 H         1 <0>         0.0544
     74 H36        -3.7410   -1.9496   -6.5979 H         1 <0>         0.0653
     75 H37        -3.3420   -3.1062   -5.3051 H         1 <0>         0.0662
     76 H38        -3.4068    1.0906   -4.4758 H         1 <0>         0.0605
     77 H39        -3.7788    0.5012   -6.1136 H         1 <0>         0.0666
     78 H40        -4.9288    0.2207   -4.7842 H         1 <0>         0.0586
     79 H41        -1.2056   -1.8853   -4.8721 H         1 <0>         0.0577
     80 H42        -1.6046   -0.7287   -6.1649 H         1 <0>         0.0640
     81 H43        -1.2325   -0.1393   -4.5271 H         1 <0>         0.0552
@<TRIPOS>BOND
     1    1    2 1
     2    1   40 1
     3    1   41 1
     4    1   42 1
     5    2    9 1
     6    2    3 2
     7    3    4 1
     8    3   43 1
     9    4    5 am
    10    4   11 1
    11    5    6 2
    12    5    7 am
    13    7    8 1
    14    7    9 am
    15    9   10 2
    16   11   15 1
    17   11   12 1
    18   11   44 1
    19   12   32 1
    20   12   45 1
    21   12   13 1
    22   13   25 1
    23   13   30 1
    24   13   14 1
    25   14   15 1
    26   14   16 1
    27   14   46 1
    28   16   17 1
    29   16   47 1
    30   16   48 1
    31   17   18 1
    32   18   19 1
    33   18   20 1
    34   18   21 1
    35   19   49 1
    36   19   50 1
    37   19   51 1
    38   20   52 1
    39   20   53 1
    40   20   54 1
    41   21   22 1
    42   21   23 1
    43   21   24 1
    44   22   55 1
    45   22   56 1
    46   22   57 1
    47   23   58 1
    48   23   59 1
    49   23   60 1
    50   24   61 1
    51   24   62 1
    52   24   63 1
    53   25   26 1
    54   25   31 2
    55   26   27 1
    56   26   64 1
    57   26   66 1
    58   27   28 2
    59   27   29 2
    60   27   30 1
    61   31   65 1
    62   32   33 1
    63   33   34 1
    64   33   35 1
    65   33   36 1
    66   34   67 1
    67   34   68 1
    68   34   69 1
    69   35   70 1
    70   35   71 1
    71   35   72 1
    72   36   37 1
    73   36   38 1
    74   36   39 1
    75   37   73 1
    76   37   74 1
    77   37   75 1
    78   38   76 1
    79   38   77 1
    80   38   78 1
    81   39   79 1
    82   39   80 1
    83   39   81 1
@<TRIPOS>MOLECULE
CHEMBL295246__11
   81    83     0     0     0
SMALL
USER_CHARGES

@<TRIPOS>ATOM
      1 C1          0.7497    1.3991   -1.9284 C.3       1 <0>        -0.0831
      2 C2          0.5476   -0.0612   -1.6155 C.2       1 <0>        -0.2970
      3 C3         -0.6174   -0.4926   -1.0865 C.2       1 <0>         0.1236
      4 N1         -0.7842   -1.8220   -0.8084 N.am      1 <0>        -0.5286
      5 C4          0.2018   -2.7030   -1.0567 C.2       1 <0>         0.7103
      6 O1          0.0325   -3.8797   -0.8016 O.2       1 <0>        -0.5294
      7 N2          1.3729   -2.3003   -1.5840 N.am      1 <0>        -0.6559
      8 H1          2.0731   -2.9488   -1.7574 H         1 <0>         0.4335
      9 C5          1.5745   -0.9998   -1.8777 C.2       1 <0>         0.5531
     10 O2          2.6318   -0.6353   -2.3595 O.2       1 <0>        -0.5102
     11 C6         -2.0482   -2.2902   -0.2345 C.3       1 <0>         0.2681
     12 C7         -2.7727   -3.2457   -1.2165 C.3       1 <0>         0.0873
     13 C8         -4.2496   -3.1078   -0.7728 C.3       1 <0>        -0.0373
     14 C9         -4.2932   -1.7651   -0.0180 C.3       1 <0>         0.0668
     15 O3         -2.9758   -1.1939   -0.0853 O.3       1 <0>        -0.3113
     16 C10        -5.3018   -0.8266   -0.6836 C.3       1 <0>        -0.0234
     17 O4         -5.5129    0.3145    0.1503 O.3       1 <0>        -0.6139
     18 Si1        -6.4744    1.4524   -0.5135 Si        1 <0>         1.1355
     19 C11        -5.7877    1.9561   -2.1704 C.3       1 <0>        -0.5024
     20 C12        -8.1906    0.7625   -0.7363 C.3       1 <0>        -0.4935
     21 C13        -6.5433    2.9385    0.6080 C.3       1 <0>        -0.3665
     22 C14        -5.1339    3.5051    0.7909 C.3       1 <0>        -0.1247
     23 C15        -7.4452    4.0060   -0.0148 C.3       1 <0>        -0.1300
     24 C16        -7.1073    2.5248    1.9687 C.3       1 <0>        -0.1248
     25 C17        -4.5910   -4.2306    0.1710 C.2       1 <0>         0.2096
     26 C18        -5.7283   -5.0388   -0.4548 C.3       1 <0>        -0.6561
     27 S1         -5.5828   -4.4686   -2.1994 S.o2      1 <0>         2.3300
     28 O5         -4.5194   -5.1342   -2.8666 O.2       1 <0>        -0.9331
     29 O6         -6.8635   -4.3304   -2.7994 O.2       1 <0>        -0.9429
     30 O7         -5.0805   -3.0278   -1.9358 O.3       1 <0>        -0.4776
     31 N3         -4.0293   -4.4665    1.2961 N.2       1 <0>        -0.5954
     32 O8         -2.6036   -2.8125   -2.5677 O.3       1 <0>        -0.5570
     33 Si2        -3.3424   -1.3990   -2.9086 Si        1 <0>         1.1108
     34 C19        -5.1460   -1.5161   -2.4567 C.3       1 <0>        -0.5477
     35 C20        -2.5446   -0.0294   -1.9295 C.3       1 <0>        -0.6424
     36 C21        -3.1805   -1.0368   -4.7288 C.3       1 <0>        -0.3490
     37 C22        -3.8357   -2.1616   -5.5329 C.3       1 <0>        -0.1344
     38 C23        -3.8735    0.2893   -5.0486 C.3       1 <0>        -0.1334
     39 C24        -1.6993   -0.9406   -5.0999 C.3       1 <0>        -0.1297
     40 H2          1.7441    1.5461   -2.3499 H         1 <0>         0.0811
     41 H3         -0.0017    1.7238   -2.6481 H         1 <0>         0.0669
     42 H4          0.6529    1.9835   -1.0134 H         1 <0>         0.0717
     43 H5         -1.4136    0.2082   -0.8835 H         1 <0>         0.2493
     44 H6         -1.8752   -2.7798    0.7239 H         1 <0>         0.1532
     45 H7         -2.4226   -4.2704   -1.0917 H         1 <0>         0.1631
     46 H8         -4.5714   -1.9337    1.0224 H         1 <0>         0.1393
     47 H9         -4.9147   -0.5038   -1.6500 H         1 <0>         0.1584
     48 H10        -6.2463   -1.3513   -0.8274 H         1 <0>         0.0909
     49 H11        -5.8302    1.1084   -2.8543 H         1 <0>         0.0810
     50 H12        -6.3786    2.7784   -2.5739 H         1 <0>         0.0953
     51 H13        -4.7525    2.2763   -2.0526 H         1 <0>         0.0950
     52 H14        -8.5923    0.4678    0.2332 H         1 <0>         0.0893
     53 H15        -8.8331    1.5230   -1.1799 H         1 <0>         0.0897
     54 H16        -8.1503   -0.1070   -1.3924 H         1 <0>         0.0831
     55 H17        -4.7321    3.7998   -0.1785 H         1 <0>         0.0537
     56 H18        -5.1742    4.3746    1.4470 H         1 <0>         0.0532
     57 H19        -4.4913    2.7446    1.2345 H         1 <0>         0.0608
     58 H20        -8.4493    3.6023   -0.1451 H         1 <0>         0.0543
     59 H21        -7.4855    4.8754    0.6414 H         1 <0>         0.0564
     60 H22        -7.0435    4.3007   -0.9842 H         1 <0>         0.0555
     61 H23        -6.4647    1.7643    2.4124 H         1 <0>         0.0590
     62 H24        -7.1475    3.3943    2.6249 H         1 <0>         0.0537
     63 H25        -8.1113    2.1211    1.8384 H         1 <0>         0.0518
     64 H26        -5.5477   -6.1105   -0.3705 H         1 <0>         0.1542
     65 H27        -4.3209   -5.2181    1.8356 H         1 <0>         0.3752
     66 H28        -6.6927   -4.7658   -0.0264 H         1 <0>         0.1632
     67 H29        -5.2415   -1.8857   -1.4357 H         1 <0>         0.2582
     68 H30        -5.6038   -0.5297   -2.5304 H         1 <0>         0.1288
     69 H31        -5.6479   -2.2015   -3.1396 H         1 <0>         0.1102
     70 H32        -1.5172    0.1075   -2.2669 H         1 <0>         0.1235
     71 H33        -3.1020    0.8955   -2.0777 H         1 <0>         0.1109
     72 H34        -2.5478   -0.2899   -0.8711 H         1 <0>         0.2257
     73 H35        -4.8909   -2.2301   -5.2685 H         1 <0>         0.0540
     74 H36        -3.7410   -1.9496   -6.5979 H         1 <0>         0.0647
     75 H37        -3.3420   -3.1062   -5.3051 H         1 <0>         0.0659
     76 H38        -3.4068    1.0906   -4.4758 H         1 <0>         0.0607
     77 H39        -3.7788    0.5012   -6.1136 H         1 <0>         0.0659
     78 H40        -4.9288    0.2207   -4.7842 H         1 <0>         0.0583
     79 H41        -1.2056   -1.8853   -4.8721 H         1 <0>         0.0577
     80 H42        -1.6046   -0.7287   -6.1649 H         1 <0>         0.0633
     81 H43        -1.2325   -0.1393   -4.5271 H         1 <0>         0.0555
@<TRIPOS>BOND
     1    1    2 1
     2    1   40 1
     3    1   41 1
     4    1   42 1
     5    2    9 1
     6    2    3 2
     7    3    4 1
     8    3   43 1
     9    4    5 am
    10    4   11 1
    11    5    6 2
    12    5    7 am
    13    7    8 1
    14    7    9 am
    15    9   10 2
    16   11   15 1
    17   11   12 1
    18   11   44 1
    19   12   32 1
    20   12   45 1
    21   12   13 1
    22   13   25 1
    23   13   30 1
    24   13   14 1
    25   14   15 1
    26   14   16 1
    27   14   46 1
    28   16   17 1
    29   16   47 1
    30   16   48 1
    31   17   18 1
    32   18   19 1
    33   18   20 1
    34   18   21 1
    35   19   49 1
    36   19   50 1
    37   19   51 1
    38   20   52 1
    39   20   53 1
    40   20   54 1
    41   21   22 1
    42   21   23 1
    43   21   24 1
    44   22   55 1
    45   22   56 1
    46   22   57 1
    47   23   58 1
    48   23   59 1
    49   23   60 1
    50   24   61 1
    51   24   62 1
    52   24   63 1
    53   25   26 1
    54   25   31 2
    55   26   27 1
    56   26   64 1
    57   26   66 1
    58   27   28 2
    59   27   29 2
    60   27   30 1
    61   31   65 1
    62   32   33 1
    63   33   34 1
    64   33   35 1
    65   33   36 1
    66   34   67 1
    67   34   68 1
    68   34   69 1
    69   35   70 1
    70   35   71 1
    71   35   72 1
    72   36   37 1
    73   36   38 1
    74   36   39 1
    75   37   73 1
    76   37   74 1
    77   37   75 1
    78   38   76 1
    79   38   77 1
    80   38   78 1
    81   39   79 1
    82   39   80 1
    83   39   81 1
@<TRIPOS>MOLECULE
CHEMBL295246__12
   81    83     0     0     0
SMALL
USER_CHARGES

@<TRIPOS>ATOM
      1 C1          1.0220    1.0610   -1.4262 C.3       1 <0>        -0.0835
      2 C2          0.8924   -0.3412   -0.8895 C.2       1 <0>        -0.2671
      3 C3         -0.3243   -0.8607   -0.6196 C.2       1 <0>         0.1896
      4 N1         -0.4240   -2.1356   -0.1328 N.am      1 <0>        -0.5199
      5 C4          0.6789   -2.8761    0.0799 C.2       1 <0>         0.6999
      6 O1          0.5674   -4.0066    0.5134 O.2       1 <0>        -0.5311
      7 N2          1.9040   -2.3834   -0.1810 N.am      1 <0>        -0.6580
      8 H1          2.6887   -2.9311   -0.0226 H         1 <0>         0.4328
      9 C5          2.0444   -1.1336   -0.6672 C.2       1 <0>         0.5530
     10 O2          3.1521   -0.6888   -0.9083 O.2       1 <0>        -0.5071
     11 C6         -1.7441   -2.6993    0.1602 C.3       1 <0>         0.3131
     12 C7         -2.3330   -3.3913   -1.0955 C.3       1 <0>         0.0908
     13 C8         -3.8544   -3.3314   -0.8153 C.3       1 <0>         0.0179
     14 C9         -4.0040   -2.1963    0.2161 C.3       1 <0>         0.0874
     15 O3         -2.6941   -1.6493    0.4425 O.3       1 <0>        -0.3456
     16 C10        -4.5684   -2.7534    1.5245 C.3       1 <0>         0.0090
     17 O4         -3.7626   -3.8491    1.9627 O.3       1 <0>        -0.6029
     18 Si1        -4.2686   -4.5292    3.3561 Si        1 <0>         1.1334
     19 C11        -4.2468   -3.2535    4.7136 C.3       1 <0>        -0.4840
     20 C12        -6.0026   -5.1747    3.1382 C.3       1 <0>        -0.4889
     21 C13        -3.1344   -5.9364    3.8080 C.3       1 <0>        -0.3693
     22 C14        -1.7103   -5.4064    3.9869 C.3       1 <0>        -0.1192
     23 C15        -3.6091   -6.5744    5.1151 C.3       1 <0>        -0.1271
     24 C16        -3.1523   -6.9841    2.6931 C.3       1 <0>        -0.1241
     25 C17        -4.5787   -2.9623   -2.0831 C.2       1 <0>         0.1914
     26 C18        -5.6445   -4.0281   -2.3407 C.3       1 <0>        -0.6047
     27 S1         -5.7408   -4.7745   -0.6604 S.o2      1 <0>         2.5476
     28 O5         -5.9292   -6.1809   -0.7370 O.2       1 <0>        -0.9099
     29 O6         -6.5208   -3.9684    0.2119 O.2       1 <0>        -0.9239
     30 O7         -4.2692   -4.5682   -0.2255 O.3       1 <0>        -0.6262
     31 N3         -4.3443   -1.9388   -2.8142 N.2       1 <0>        -0.5574
     32 O8         -2.0036   -2.6637   -2.2805 O.3       1 <0>        -0.6108
     33 Si2        -1.4733   -3.5987   -3.5072 Si        1 <0>         1.1185
     34 C19         0.0141   -4.5715   -2.9483 C.3       1 <0>        -0.4728
     35 C20        -2.8251   -4.7724   -4.0227 C.3       1 <0>        -0.4902
     36 C21        -1.0030   -2.5202   -4.9516 C.3       1 <0>        -0.3597
     37 C22         0.1072   -1.5562   -4.5282 C.3       1 <0>        -0.1208
     38 C23        -0.5055   -3.3972   -6.1023 C.3       1 <0>        -0.1312
     39 C24        -2.2245   -1.7212   -5.4105 C.3       1 <0>        -0.1185
     40 H2          2.0752    1.2939   -1.5834 H         1 <0>         0.0801
     41 H3          0.4875    1.1386   -2.3729 H         1 <0>         0.0701
     42 H4          0.5972    1.7647   -0.7103 H         1 <0>         0.0700
     43 H5         -1.2146   -0.2726   -0.7868 H         1 <0>         0.1809
     44 H6         -1.6852   -3.3982    0.9945 H         1 <0>         0.1552
     45 H7         -1.9905   -4.4236   -1.1673 H         1 <0>         0.1153
     46 H8         -4.6655   -1.4239   -0.1762 H         1 <0>         0.1352
     47 H9         -4.5632   -1.9719    2.2844 H         1 <0>         0.0773
     48 H10        -5.5905   -3.0959    1.3627 H         1 <0>         0.1289
     49 H11        -4.9104   -2.4302    4.4491 H         1 <0>         0.0802
     50 H12        -4.5849   -3.7080    5.6448 H         1 <0>         0.0848
     51 H13        -3.2322   -2.8759    4.8410 H         1 <0>         0.0858
     52 H14        -6.0153   -5.9211    2.3440 H         1 <0>         0.0812
     53 H15        -6.3408   -5.6292    4.0694 H         1 <0>         0.0881
     54 H16        -6.6662   -4.3514    2.8738 H         1 <0>         0.0920
     55 H17        -1.6976   -4.6600    4.7811 H         1 <0>         0.0492
     56 H18        -1.0467   -6.2297    4.2513 H         1 <0>         0.0516
     57 H19        -1.3722   -4.9518    3.0557 H         1 <0>         0.0578
     58 H20        -4.6236   -6.9520    4.9876 H         1 <0>         0.0540
     59 H21        -2.9455   -7.3977    5.3795 H         1 <0>         0.0548
     60 H22        -3.5963   -5.8280    5.9093 H         1 <0>         0.0529
     61 H23        -2.8141   -6.5296    1.7619 H         1 <0>         0.0608
     62 H24        -2.4887   -7.8074    2.9575 H         1 <0>         0.0521
     63 H25        -4.1668   -7.3617    2.5657 H         1 <0>         0.0518
     64 H26        -6.5941   -3.5787   -2.6312 H         1 <0>         0.1721
     65 H27        -3.6434   -1.3159   -2.5662 H         1 <0>         0.3713
     66 H28        -5.3090   -4.7553   -3.0802 H         1 <0>         0.1698
     67 H29        -0.2781   -5.2573   -2.1531 H         1 <0>         0.0901
     68 H30         0.4138   -5.1389   -3.7888 H         1 <0>         0.0920
     69 H31         0.7768   -3.8875   -2.5762 H         1 <0>         0.0846
     70 H32        -3.6723   -4.2045   -4.4071 H         1 <0>         0.0989
     71 H33        -2.4511   -5.4382   -4.8004 H         1 <0>         0.0938
     72 H34        -3.1428   -5.3612   -3.1622 H         1 <0>         0.0826
     73 H35         0.9774   -2.1254   -4.2012 H         1 <0>         0.0488
     74 H36         0.3823   -0.9252   -5.3733 H         1 <0>         0.0582
     75 H37        -0.2472   -0.9314   -3.7084 H         1 <0>         0.0592
     76 H38        -1.2964   -4.0839   -6.4039 H         1 <0>         0.0549
     77 H39        -0.2304   -2.7662   -6.9474 H         1 <0>         0.0605
     78 H40         0.3647   -3.9664   -5.7754 H         1 <0>         0.0535
     79 H41        -2.5789   -1.0964   -4.5907 H         1 <0>         0.0597
     80 H42        -1.9493   -1.0902   -6.2556 H         1 <0>         0.0556
     81 H43        -3.0154   -2.4080   -5.7121 H         1 <0>         0.0540
@<TRIPOS>BOND
     1    1    2 1
     2    1   40 1
     3    1   41 1
     4    1   42 1
     5    2    9 1
     6    2    3 2
     7    3    4 1
     8    3   43 1
     9    4    5 am
    10    4   11 1
    11    5    6 2
    12    5    7 am
    13    7    8 1
    14    7    9 am
    15    9   10 2
    16   11   15 1
    17   11   12 1
    18   11   44 1
    19   12   32 1
    20   12   45 1
    21   12   13 1
    22   13   25 1
    23   13   30 1
    24   13   14 1
    25   14   15 1
    26   14   16 1
    27   14   46 1
    28   16   17 1
    29   16   47 1
    30   16   48 1
    31   17   18 1
    32   18   19 1
    33   18   20 1
    34   18   21 1
    35   19   49 1
    36   19   50 1
    37   19   51 1
    38   20   52 1
    39   20   53 1
    40   20   54 1
    41   21   22 1
    42   21   23 1
    43   21   24 1
    44   22   55 1
    45   22   56 1
    46   22   57 1
    47   23   58 1
    48   23   59 1
    49   23   60 1
    50   24   61 1
    51   24   62 1
    52   24   63 1
    53   25   26 1
    54   25   31 2
    55   26   27 1
    56   26   64 1
    57   26   66 1
    58   27   28 2
    59   27   29 2
    60   27   30 1
    61   31   65 1
    62   32   33 1
    63   33   34 1
    64   33   35 1
    65   33   36 1
    66   34   67 1
    67   34   68 1
    68   34   69 1
    69   35   70 1
    70   35   71 1
    71   35   72 1
    72   36   37 1
    73   36   38 1
    74   36   39 1
    75   37   73 1
    76   37   74 1
    77   37   75 1
    78   38   76 1
    79   38   77 1
    80   38   78 1
    81   39   79 1
    82   39   80 1
    83   39   81 1
@<TRIPOS>MOLECULE
CHEMBL295246__13
   81    83     0     0     0
SMALL
USER_CHARGES

@<TRIPOS>ATOM
      1 C1          1.0787    1.0192   -1.4169 C.3       1 <0>        -0.0820
      2 C2          0.9309   -0.3820   -0.8824 C.2       1 <0>        -0.2722
      3 C3         -0.2924   -0.8860   -0.6129 C.2       1 <0>         0.1959
      4 N1         -0.4086   -2.1603   -0.1280 N.am      1 <0>        -0.5200
      5 C4          0.6847   -2.9155    0.0831 C.2       1 <0>         0.6994
      6 O1          0.5585   -4.0451    0.5149 O.2       1 <0>        -0.5327
      7 N2          1.9160   -2.4383   -0.1774 N.am      1 <0>        -0.6585
      8 H1          2.6936   -2.9964   -0.0200 H         1 <0>         0.4322
      9 C5          2.0725   -1.1897   -0.6616 C.2       1 <0>         0.5532
     10 O2          3.1859   -0.7590   -0.9024 O.2       1 <0>        -0.5094
     11 C6         -1.7359   -2.7072    0.1644 C.3       1 <0>         0.3140
     12 C7         -2.3338   -3.3899   -1.0921 C.3       1 <0>         0.0959
     13 C8         -3.8543   -3.3106   -0.8115 C.3       1 <0>         0.0730
     14 C9         -3.9889   -2.1750    0.2214 C.3       1 <0>         0.0999
     15 O3         -2.6721   -1.6453    0.4483 O.3       1 <0>        -0.3394
     16 C10        -4.5604   -2.7263    1.5292 C.3       1 <0>         0.0044
     17 O4         -3.7681   -3.8323    1.9664 O.3       1 <0>        -0.6031
     18 Si1        -4.2826   -4.5076    3.3590 Si        1 <0>         1.1333
     19 C11        -4.2453   -3.2335    4.7178 C.3       1 <0>        -0.4838
     20 C12        -6.0243   -5.1315    3.1403 C.3       1 <0>        -0.4898
     21 C13        -3.1658   -5.9290    3.8097 C.3       1 <0>        -0.3695
     22 C14        -1.7354   -5.4166    3.9893 C.3       1 <0>        -0.1196
     23 C15        -3.6484   -6.5624    5.1162 C.3       1 <0>        -0.1269
     24 C16        -3.1964   -6.9753    2.6939 C.3       1 <0>        -0.1244
     25 C17        -4.5740   -2.9305   -2.0787 C.2       1 <0>         0.1867
     26 C18        -5.6535   -3.9821   -2.3375 C.3       1 <0>        -0.6741
     27 S1         -5.7592   -4.7293   -0.6581 S.o2      1 <0>         2.5498
     28 O5         -5.9658   -6.1330   -0.7365 O.2       1 <0>        -0.9100
     29 O6         -6.5286   -3.9142    0.2153 O.2       1 <0>        -0.9220
     30 O7         -4.2850   -4.5427   -0.2233 O.3       1 <0>        -0.6242
     31 N3         -4.3264   -1.9092   -2.8085 N.2       1 <0>        -0.5491
     32 O8         -1.9952   -2.6651   -2.2761 O.3       1 <0>        -0.5707
     33 Si2        -1.4780   -3.6054   -3.5044 Si        1 <0>         1.1227
     34 C19        -0.0003   -4.5948   -2.9493 C.3       1 <0>        -0.4789
     35 C20        -2.8439   -4.7638   -4.0173 C.3       1 <0>        -0.4948
     36 C21        -0.9991   -2.5315   -4.9494 C.3       1 <0>        -0.3590
     37 C22         0.1226   -1.5801   -4.5282 C.3       1 <0>        -0.1208
     38 C23        -0.5139   -3.4135   -6.1016 C.3       1 <0>        -0.1301
     39 C24        -2.2127   -1.7189   -5.4053 C.3       1 <0>        -0.1226
     40 H2          2.1347    1.2387   -1.5740 H         1 <0>         0.0788
     41 H3          0.5449    1.1053   -2.3633 H         1 <0>         0.0696
     42 H4          0.6633    1.7273   -0.6998 H         1 <0>         0.0692
     43 H5         -1.1750   -0.2861   -0.7789 H         1 <0>         0.1848
     44 H6         -1.6859   -3.4078    0.9978 H         1 <0>         0.1534
     45 H7         -2.0048   -4.4265   -1.1652 H         1 <0>         0.1095
     46 H8         -4.6404   -1.3935   -0.1698 H         1 <0>         0.1394
     47 H9         -4.5457   -1.9457    2.2898 H         1 <0>         0.0783
     48 H10        -5.5865   -3.0562    1.3669 H         1 <0>         0.1269
     49 H11        -4.8987   -2.4019    4.4541 H         1 <0>         0.0804
     50 H12        -4.5892   -3.6848    5.6485 H         1 <0>         0.0845
     51 H13        -3.2263   -2.8685    4.8457 H         1 <0>         0.0862
     52 H14        -6.0461   -5.8769    2.3454 H         1 <0>         0.0803
     53 H15        -6.3682   -5.5827    4.0711 H         1 <0>         0.0879
     54 H16        -6.6777   -4.2998    2.8766 H         1 <0>         0.0915
     55 H17        -1.7136   -4.6712    4.7843 H         1 <0>         0.0494
     56 H18        -1.0819   -6.2482    4.2530 H         1 <0>         0.0515
     57 H19        -1.3915   -4.9653    3.0586 H         1 <0>         0.0586
     58 H20        -4.6675   -6.9274    4.9882 H         1 <0>         0.0537
     59 H21        -2.9950   -7.3940    5.3799 H         1 <0>         0.0546
     60 H22        -3.6266   -5.8170    5.9111 H         1 <0>         0.0529
     61 H23        -2.8525   -6.5240    1.7631 H         1 <0>         0.0611
     62 H24        -2.5429   -7.8069    2.9576 H         1 <0>         0.0521
     63 H25        -4.2154   -7.3403    2.5659 H         1 <0>         0.0513
     64 H26        -6.5973   -3.5200   -2.6272 H         1 <0>         0.1663
     65 H27        -4.8478   -1.7484   -3.6106 H         1 <0>         0.3643
     66 H28        -5.3276   -4.7126   -3.0779 H         1 <0>         0.1691
     67 H29        -0.2985   -5.2783   -2.1543 H         1 <0>         0.0883
     68 H30         0.3918   -5.1656   -3.7911 H         1 <0>         0.0911
     69 H31         0.7704   -3.9195   -2.5778 H         1 <0>         0.0830
     70 H32        -3.6854   -4.1864   -4.4002 H         1 <0>         0.0850
     71 H33        -2.4789   -5.4338   -4.7958 H         1 <0>         0.0935
     72 H34        -3.1666   -5.3490   -3.1562 H         1 <0>         0.0803
     73 H35         0.9872   -2.1590   -4.2034 H         1 <0>         0.0480
     74 H36         0.4028   -0.9518   -5.3736 H         1 <0>         0.0562
     75 H37        -0.2230   -0.9517   -3.7073 H         1 <0>         0.0614
     76 H38        -1.3131   -4.0913   -6.4018 H         1 <0>         0.0530
     77 H39        -0.2337   -2.7852   -6.9471 H         1 <0>         0.0589
     78 H40         0.3507   -3.9924   -5.7769 H         1 <0>         0.0537
     79 H41        -2.5583   -1.0906   -4.5845 H         1 <0>         0.0696
     80 H42        -1.9325   -1.0906   -6.2508 H         1 <0>         0.0542
     81 H43        -3.0118   -2.3967   -5.7054 H         1 <0>         0.0452
@<TRIPOS>BOND
     1    1    2 1
     2    1   40 1
     3    1   41 1
     4    1   42 1
     5    2    9 1
     6    2    3 2
     7    3    4 1
     8    3   43 1
     9    4    5 am
    10    4   11 1
    11    5    6 2
    12    5    7 am
    13    7    8 1
    14    7    9 am
    15    9   10 2
    16   11   15 1
    17   11   12 1
    18   11   44 1
    19   12   32 1
    20   12   45 1
    21   12   13 1
    22   13   25 1
    23   13   30 1
    24   13   14 1
    25   14   15 1
    26   14   16 1
    27   14   46 1
    28   16   17 1
    29   16   47 1
    30   16   48 1
    31   17   18 1
    32   18   19 1
    33   18   20 1
    34   18   21 1
    35   19   49 1
    36   19   50 1
    37   19   51 1
    38   20   52 1
    39   20   53 1
    40   20   54 1
    41   21   22 1
    42   21   23 1
    43   21   24 1
    44   22   55 1
    45   22   56 1
    46   22   57 1
    47   23   58 1
    48   23   59 1
    49   23   60 1
    50   24   61 1
    51   24   62 1
    52   24   63 1
    53   25   26 1
    54   25   31 2
    55   26   27 1
    56   26   64 1
    57   26   66 1
    58   27   28 2
    59   27   29 2
    60   27   30 1
    61   31   65 1
    62   32   33 1
    63   33   34 1
    64   33   35 1
    65   33   36 1
    66   34   67 1
    67   34   68 1
    68   34   69 1
    69   35   70 1
    70   35   71 1
    71   35   72 1
    72   36   37 1
    73   36   38 1
    74   36   39 1
    75   37   73 1
    76   37   74 1
    77   37   75 1
    78   38   76 1
    79   38   77 1
    80   38   78 1
    81   39   79 1
    82   39   80 1
    83   39   81 1
@<TRIPOS>MOLECULE
CHEMBL295246__14
   81    83     0     0     0
SMALL
USER_CHARGES

@<TRIPOS>ATOM
      1 C1          1.4234    0.4982   -1.3165 C.3       1 <0>        -0.0828
      2 C2          1.1256   -0.9260   -0.9242 C.2       1 <0>        -0.2689
      3 C3         -0.1417   -1.3136   -0.6653 C.2       1 <0>         0.1957
      4 N1         -0.3945   -2.6107   -0.3104 N.am      1 <0>        -0.5176
      5 C4          0.6078   -3.5033   -0.2165 C.2       1 <0>         0.7010
      6 O1          0.3608   -4.6507    0.1008 O.2       1 <0>        -0.5357
      7 N2          1.8801   -3.1441   -0.4694 N.am      1 <0>        -0.6575
      8 H1          2.5907   -3.8004   -0.3977 H         1 <0>         0.4329
      9 C5          2.1700   -1.8769   -0.8278 C.2       1 <0>         0.5533
     10 O2          3.3202   -1.5523   -1.0618 O.2       1 <0>        -0.5073
     11 C6         -1.7694   -3.0313   -0.0295 C.3       1 <0>         0.3054
     12 C7         -2.4720   -3.5030   -1.3281 C.3       1 <0>         0.0912
     13 C8         -3.9659   -3.2818   -0.9872 C.3       1 <0>         0.0624
     14 C9         -3.9430   -2.2556    0.1621 C.3       1 <0>         0.0918
     15 O3         -2.5683   -1.9065    0.3960 O.3       1 <0>        -0.3290
     16 C10        -4.7355   -1.0093   -0.2373 C.3       1 <0>         0.0668
     17 O4         -4.8073   -0.1139    0.8740 O.3       1 <0>        -0.5995
     18 Si1        -5.6328    1.2590    0.5677 Si        1 <0>         1.1359
     19 C11        -4.8107    2.1796   -0.8278 C.3       1 <0>        -0.4838
     20 C12        -7.3828    0.8373    0.0876 C.3       1 <0>        -0.4874
     21 C13        -5.6478    2.3282    2.0932 C.3       1 <0>        -0.3677
     22 C14        -4.2106    2.6744    2.4875 C.3       1 <0>        -0.1220
     23 C15        -6.4222    3.6160    1.8058 C.3       1 <0>        -0.1273
     24 C16        -6.3229    1.5721    3.2393 C.3       1 <0>        -0.1236
     25 C17        -4.6654   -2.6887   -2.1818 C.2       1 <0>         0.1853
     26 C18        -5.8661   -3.5768   -2.5100 C.3       1 <0>        -0.6728
     27 S1         -6.0194   -4.4829   -0.9146 S.o2      1 <0>         2.5596
     28 O5         -6.3903   -5.8375   -1.1308 O.2       1 <0>        -0.9082
     29 O6         -6.6679   -3.6840    0.0655 O.2       1 <0>        -0.9171
     30 O7         -4.5238   -4.5128   -0.5151 O.3       1 <0>        -0.6520
     31 N3         -4.3172   -1.6299   -2.8099 N.2       1 <0>        -0.5521
     32 O8         -2.0786   -2.6986   -2.4418 O.3       1 <0>        -0.5685
     33 Si2        -1.7014   -3.5546   -3.7779 Si        1 <0>         1.1195
     34 C19        -0.4101   -4.8291   -3.3550 C.3       1 <0>        -0.4779
     35 C20        -3.2281   -4.4070   -4.4208 C.3       1 <0>        -0.4929
     36 C21        -1.0353   -2.4053   -5.0842 C.3       1 <0>        -0.3571
     37 C22         0.2185   -1.7052   -4.5562 C.3       1 <0>        -0.1216
     38 C23        -0.6815   -3.2083   -6.3376 C.3       1 <0>        -0.1302
     39 C24        -2.0958   -1.3586   -5.4315 C.3       1 <0>        -0.1218
     40 H2          2.4940    0.6118   -1.4871 H         1 <0>         0.0795
     41 H3          0.8818    0.7444   -2.2298 H         1 <0>         0.0701
     42 H4          1.1100    1.1686   -0.5162 H         1 <0>         0.0701
     43 H5         -0.9518   -0.6031   -0.7377 H         1 <0>         0.1855
     44 H6         -1.7823   -3.8184    0.7244 H         1 <0>         0.1407
     45 H7         -2.2681   -4.5564   -1.5201 H         1 <0>         0.1133
     46 H8         -4.3715   -2.6972    1.0619 H         1 <0>         0.1228
     47 H9         -4.2381   -0.5142   -1.0713 H         1 <0>         0.1004
     48 H10        -5.7429   -1.2996   -0.5357 H         1 <0>         0.0668
     49 H11        -4.8019    1.5540   -1.7204 H         1 <0>         0.0804
     50 H12        -5.3624    3.0971   -1.0326 H         1 <0>         0.0845
     51 H13        -3.7868    2.4263   -0.5470 H         1 <0>         0.0890
     52 H14        -7.8638    0.2987    0.9041 H         1 <0>         0.0906
     53 H15        -7.9345    1.7548   -0.1172 H         1 <0>         0.0863
     54 H16        -7.3740    0.2118   -0.8050 H         1 <0>         0.0758
     55 H17        -3.7296    3.2131    1.6710 H         1 <0>         0.0518
     56 H18        -4.2194    3.3000    3.3801 H         1 <0>         0.0521
     57 H19        -3.6589    1.7569    2.6922 H         1 <0>         0.0593
     58 H20        -7.4461    3.3693    1.5249 H         1 <0>         0.0535
     59 H21        -6.4310    4.2416    2.6984 H         1 <0>         0.0554
     60 H22        -5.9412    4.1547    0.9893 H         1 <0>         0.0538
     61 H23        -5.7712    0.6546    3.4440 H         1 <0>         0.0591
     62 H24        -6.3317    2.1976    4.1319 H         1 <0>         0.0527
     63 H25        -7.3468    1.3254    2.9584 H         1 <0>         0.0520
     64 H26        -6.7559   -2.9821   -2.7166 H         1 <0>         0.1694
     65 H27        -4.8346   -1.3258   -3.5720 H         1 <0>         0.3661
     66 H28        -5.6450   -4.2561   -3.3333 H         1 <0>         0.1735
     67 H29        -0.7818   -5.4721   -2.5573 H         1 <0>         0.0892
     68 H30        -0.1926   -5.4323   -4.2364 H         1 <0>         0.0919
     69 H31         0.4998   -4.3284   -3.0239 H         1 <0>         0.0850
     70 H32        -3.9432   -3.6602   -4.7659 H         1 <0>         0.0869
     71 H33        -2.9573   -5.0610   -5.2497 H         1 <0>         0.0932
     72 H34        -3.6771   -4.9986   -3.6230 H         1 <0>         0.0790
     73 H35         0.9741   -2.4509   -4.3088 H         1 <0>         0.0477
     74 H36         0.6083   -1.0328   -5.3204 H         1 <0>         0.0570
     75 H37        -0.0335   -1.1332   -3.6632 H         1 <0>         0.0618
     76 H38        -1.5747   -3.7070   -6.7137 H         1 <0>         0.0532
     77 H39        -0.2917   -2.5359   -7.1018 H         1 <0>         0.0592
     78 H40         0.0741   -3.9539   -6.0901 H         1 <0>         0.0536
     79 H41        -2.3479   -0.7866   -4.5385 H         1 <0>         0.0688
     80 H42        -1.7061   -0.6862   -6.1957 H         1 <0>         0.0544
     81 H43        -2.9890   -1.8574   -5.8076 H         1 <0>         0.0463
@<TRIPOS>BOND
     1    1    2 1
     2    1   40 1
     3    1   41 1
     4    1   42 1
     5    2    9 1
     6    2    3 2
     7    3    4 1
     8    3   43 1
     9    4    5 am
    10    4   11 1
    11    5    6 2
    12    5    7 am
    13    7    8 1
    14    7    9 am
    15    9   10 2
    16   11   15 1
    17   11   12 1
    18   11   44 1
    19   12   32 1
    20   12   45 1
    21   12   13 1
    22   13   25 1
    23   13   30 1
    24   13   14 1
    25   14   15 1
    26   14   16 1
    27   14   46 1
    28   16   17 1
    29   16   47 1
    30   16   48 1
    31   17   18 1
    32   18   19 1
    33   18   20 1
    34   18   21 1
    35   19   49 1
    36   19   50 1
    37   19   51 1
    38   20   52 1
    39   20   53 1
    40   20   54 1
    41   21   22 1
    42   21   23 1
    43   21   24 1
    44   22   55 1
    45   22   56 1
    46   22   57 1
    47   23   58 1
    48   23   59 1
    49   23   60 1
    50   24   61 1
    51   24   62 1
    52   24   63 1
    53   25   26 1
    54   25   31 2
    55   26   27 1
    56   26   64 1
    57   26   66 1
    58   27   28 2
    59   27   29 2
    60   27   30 1
    61   31   65 1
    62   32   33 1
    63   33   34 1
    64   33   35 1
    65   33   36 1
    66   34   67 1
    67   34   68 1
    68   34   69 1
    69   35   70 1
    70   35   71 1
    71   35   72 1
    72   36   37 1
    73   36   38 1
    74   36   39 1
    75   37   73 1
    76   37   74 1
    77   37   75 1
    78   38   76 1
    79   38   77 1
    80   38   78 1
    81   39   79 1
    82   39   80 1
    83   39   81 1
@<TRIPOS>MOLECULE
CHEMBL295246__15
   81    83     0     0     0
SMALL
USER_CHARGES

@<TRIPOS>ATOM
      1 C1          1.4235    0.5001   -1.3307 C.3       1 <0>        -0.0845
      2 C2          1.1268   -0.9231   -0.9334 C.2       1 <0>        -0.2639
      3 C3         -0.1400   -1.3107   -0.6727 C.2       1 <0>         0.1893
      4 N1         -0.3917   -2.6067   -0.3133 N.am      1 <0>        -0.5177
      5 C4          0.6113   -3.4983   -0.2168 C.2       1 <0>         0.7015
      6 O1          0.3652   -4.6448    0.1046 O.2       1 <0>        -0.5341
      7 N2          1.8831   -3.1390   -0.4715 N.am      1 <0>        -0.6569
      8 H1          2.5943   -3.7945   -0.3978 H         1 <0>         0.4336
      9 C5          2.1720   -1.8728   -0.8343 C.2       1 <0>         0.5532
     10 O2          3.3218   -1.5482   -1.0699 O.2       1 <0>        -0.5048
     11 C6         -1.7662   -3.0274   -0.0303 C.3       1 <0>         0.3044
     12 C7         -2.4702   -3.5006   -1.3276 C.3       1 <0>         0.0856
     13 C8         -3.9637   -3.2795   -0.9852 C.3       1 <0>         0.0078
     14 C9         -3.9398   -2.2520    0.1631 C.3       1 <0>         0.0796
     15 O3         -2.5649   -1.9023    0.3950 O.3       1 <0>        -0.3344
     16 C10        -4.7331   -1.0064   -0.2367 C.3       1 <0>         0.0697
     17 O4         -4.8038   -0.1099    0.8738 O.3       1 <0>        -0.5977
     18 Si1        -5.6300    1.2625    0.5669 Si        1 <0>         1.1307
     19 C11        -4.8097    2.1819   -0.8304 C.3       1 <0>        -0.4855
     20 C12        -7.3804    0.8399    0.0894 C.3       1 <0>        -0.4845
     21 C13        -5.6435    2.3333    2.0914 C.3       1 <0>        -0.3661
     22 C14        -4.2059    2.6803    2.4837 C.3       1 <0>        -0.1219
     23 C15        -6.4185    3.6206    1.8036 C.3       1 <0>        -0.1282
     24 C16        -6.3171    1.5782    3.2390 C.3       1 <0>        -0.1239
     25 C17        -4.6648   -2.6878   -2.1795 C.2       1 <0>         0.1892
     26 C18        -5.8656   -3.5765   -2.5054 C.3       1 <0>        -0.6041
     27 S1         -6.0169   -4.4810   -0.9089 S.o2      1 <0>         2.5579
     28 O5         -6.3877   -5.8359   -1.1233 O.2       1 <0>        -0.9081
     29 O6         -6.6644   -3.6813    0.0711 O.2       1 <0>        -0.9193
     30 O7         -4.5208   -4.5101   -0.5112 O.3       1 <0>        -0.6542
     31 N3         -4.3176   -1.6295   -2.8092 N.2       1 <0>        -0.5584
     32 O8         -2.0783   -2.6973   -2.4426 O.3       1 <0>        -0.6089
     33 Si2        -1.7014   -3.5546   -3.7779 Si        1 <0>         1.1137
     34 C19        -0.4090   -4.8277   -3.3543 C.3       1 <0>        -0.4715
     35 C20        -3.2280   -4.4088   -4.4189 C.3       1 <0>        -0.4880
     36 C21        -1.0368   -2.4064   -5.0859 C.3       1 <0>        -0.3577
     37 C22         0.2169   -1.7049   -4.5596 C.3       1 <0>        -0.1217
     38 C23        -0.6833   -3.2106   -6.3386 C.3       1 <0>        -0.1314
     39 C24        -2.0982   -1.3608   -5.4338 C.3       1 <0>        -0.1190
     40 H2          2.4939    0.6138   -1.5022 H         1 <0>         0.0809
     41 H3          0.8812    0.7427   -2.2446 H         1 <0>         0.0705
     42 H4          1.1098    1.1730   -0.5326 H         1 <0>         0.0710
     43 H5         -0.9507   -0.6010   -0.7472 H         1 <0>         0.1814
     44 H6         -1.7781   -3.8137    0.7244 H         1 <0>         0.1426
     45 H7         -2.2662   -4.5541   -1.5187 H         1 <0>         0.1192
     46 H8         -4.3671   -2.6928    1.0638 H         1 <0>         0.1296
     47 H9         -4.2367   -0.5120   -1.0718 H         1 <0>         0.0673
     48 H10        -5.7408   -1.2972   -0.5336 H         1 <0>         0.0812
     49 H11        -4.8018    1.5554   -1.7224 H         1 <0>         0.0800
     50 H12        -5.3619    3.0991   -1.0355 H         1 <0>         0.0872
     51 H13        -3.7856    2.4292   -0.5510 H         1 <0>         0.0889
     52 H14        -7.8603    0.3020    0.9069 H         1 <0>         0.0923
     53 H15        -7.9326    1.7571   -0.1157 H         1 <0>         0.0877
     54 H16        -7.3725    0.2134   -0.8026 H         1 <0>         0.0808
     55 H17        -3.7260    3.2182    1.6661 H         1 <0>         0.0517
     56 H18        -4.2138    3.3068    3.3756 H         1 <0>         0.0530
     57 H19        -3.6537    1.7632    2.6887 H         1 <0>         0.0590
     58 H20        -7.4427    3.3734    1.5242 H         1 <0>         0.0543
     59 H21        -6.4264    4.2471    2.6955 H         1 <0>         0.0562
     60 H22        -5.9386    4.1586    0.9860 H         1 <0>         0.0540
     61 H23        -5.7649    0.6611    3.4441 H         1 <0>         0.0591
     62 H24        -6.3250    2.2047    4.1310 H         1 <0>         0.0534
     63 H25        -7.3412    1.3310    2.9596 H         1 <0>         0.0528
     64 H26        -6.7558   -2.9822   -2.7116 H         1 <0>         0.1753
     65 H27        -3.5360   -1.1303   -2.5249 H         1 <0>         0.3722
     66 H28        -5.6453   -4.2565   -3.3283 H         1 <0>         0.1742
     67 H29        -0.7803   -5.4708   -2.5564 H         1 <0>         0.0912
     68 H30        -0.1909   -5.4311   -4.2355 H         1 <0>         0.0931
     69 H31         0.5003   -4.3262   -3.0233 H         1 <0>         0.0866
     70 H32        -3.9437   -3.6628   -4.7643 H         1 <0>         0.1008
     71 H33        -2.9572   -5.0635   -5.2472 H         1 <0>         0.0936
     72 H34        -3.6761   -4.9997   -3.6201 H         1 <0>         0.0818
     73 H35         0.9730   -2.4498   -4.3117 H         1 <0>         0.0487
     74 H36         0.6057   -1.0332   -5.3249 H         1 <0>         0.0592
     75 H37        -0.0350   -1.1320   -3.6671 H         1 <0>         0.0596
     76 H38        -1.5765   -3.7104   -6.7136 H         1 <0>         0.0552
     77 H39        -0.2945   -2.5389   -7.1039 H         1 <0>         0.0608
     78 H40         0.0729   -3.9555   -6.0908 H         1 <0>         0.0537
     79 H41        -2.3501   -0.7879   -4.5414 H         1 <0>         0.0585
     80 H42        -1.7094   -0.6891   -6.1991 H         1 <0>         0.0567
     81 H43        -2.9914   -1.8606   -5.8088 H         1 <0>         0.0549
@<TRIPOS>BOND
     1    1    2 1
     2    1   40 1
     3    1   41 1
     4    1   42 1
     5    2    9 1
     6    2    3 2
     7    3    4 1
     8    3   43 1
     9    4    5 am
    10    4   11 1
    11    5    6 2
    12    5    7 am
    13    7    8 1
    14    7    9 am
    15    9   10 2
    16   11   15 1
    17   11   12 1
    18   11   44 1
    19   12   32 1
    20   12   45 1
    21   12   13 1
    22   13   25 1
    23   13   30 1
    24   13   14 1
    25   14   15 1
    26   14   16 1
    27   14   46 1
    28   16   17 1
    29   16   47 1
    30   16   48 1
    31   17   18 1
    32   18   19 1
    33   18   20 1
    34   18   21 1
    35   19   49 1
    36   19   50 1
    37   19   51 1
    38   20   52 1
    39   20   53 1
    40   20   54 1
    41   21   22 1
    42   21   23 1
    43   21   24 1
    44   22   55 1
    45   22   56 1
    46   22   57 1
    47   23   58 1
    48   23   59 1
    49   23   60 1
    50   24   61 1
    51   24   62 1
    52   24   63 1
    53   25   26 1
    54   25   31 2
    55   26   27 1
    56   26   64 1
    57   26   66 1
    58   27   28 2
    59   27   29 2
    60   27   30 1
    61   31   65 1
    62   32   33 1
    63   33   34 1
    64   33   35 1
    65   33   36 1
    66   34   67 1
    67   34   68 1
    68   34   69 1
    69   35   70 1
    70   35   71 1
    71   35   72 1
    72   36   37 1
    73   36   38 1
    74   36   39 1
    75   37   73 1
    76   37   74 1
    77   37   75 1
    78   38   76 1
    79   38   77 1
    80   38   78 1
    81   39   79 1
    82   39   80 1
    83   39   81 1
@<TRIPOS>MOLECULE
CHEMBL295246__16
   81    83     0     0     0
SMALL
USER_CHARGES

@<TRIPOS>ATOM
      1 C1          1.1909   -0.1734    1.8063 C.3       1 <0>        -0.0858
      2 C2          0.7905   -1.5061    1.2279 C.2       1 <0>        -0.2600
      3 C3         -0.5107   -1.7953    1.0123 C.2       1 <0>         0.1676
      4 N1         -0.8568   -3.0102    0.4864 N.am      1 <0>        -0.5251
      5 C4          0.0872   -3.9194    0.1826 C.2       1 <0>         0.6816
      6 O1         -0.2426   -4.9929   -0.2834 O.2       1 <0>        -0.4478
      7 N2          1.3915   -3.6572    0.3868 N.am      1 <0>        -0.6648
      8 H1          2.0592   -4.3238    0.1615 H         1 <0>         0.4287
      9 C5          1.7740   -2.4695    0.8978 C.2       1 <0>         0.5529
     10 O2          2.9542   -2.2295    1.0780 O.2       1 <0>        -0.5128
     11 C6         -2.2686   -3.3240    0.2525 C.3       1 <0>         0.2945
     12 C7         -2.5472   -3.4526   -1.2615 C.3       1 <0>         0.0687
     13 C8         -3.5723   -4.6045   -1.3579 C.3       1 <0>         0.0781
     14 C9         -3.7916   -5.0360    0.1089 C.3       1 <0>         0.1147
     15 O3         -2.5925   -4.6211    0.7988 O.3       1 <0>        -0.3131
     16 C10        -3.9591   -6.5542    0.1981 C.3       1 <0>         0.0737
     17 O4         -4.2759   -6.9204    1.5426 O.3       1 <0>        -0.6020
     18 Si1        -4.4792   -8.5235    1.7632 Si        1 <0>         1.1368
     19 C11        -5.8744   -9.1266    0.6859 C.3       1 <0>        -0.4910
     20 C12        -2.9101   -9.4173    1.3052 C.3       1 <0>        -0.4789
     21 C13        -4.8854   -8.8579    3.5504 C.3       1 <0>        -0.3682
     22 C14        -6.1740   -8.1238    3.9264 C.3       1 <0>        -0.1221
     23 C15        -5.0761  -10.3618    3.7573 C.3       1 <0>        -0.1273
     24 C16        -3.7395   -8.3626    4.4350 C.3       1 <0>        -0.1220
     25 C17        -2.9712   -5.7469   -2.1333 C.2       1 <0>         0.1836
     26 C18        -3.8499   -5.9932   -3.3603 C.3       1 <0>        -0.6620
     27 S1         -4.7597   -4.3933   -3.4095 S.o2      1 <0>         2.5392
     28 O5         -6.1110   -4.5869   -3.8040 O.2       1 <0>        -0.9195
     29 O6         -3.9593   -3.3688   -3.9830 O.2       1 <0>        -0.9102
     30 O7         -4.8011   -4.0984   -1.8899 O.3       1 <0>        -0.6569
     31 N3         -1.9135   -6.3956   -1.8212 N.2       1 <0>        -0.5139
     32 O8         -1.3492   -3.7884   -1.9643 O.3       1 <0>        -0.5634
     33 Si2        -0.7390   -2.5670   -2.8566 Si        1 <0>         1.0999
     34 C19        -1.9558   -2.1032   -4.1889 C.3       1 <0>        -0.4485
     35 C20        -0.4265   -1.0932   -1.7606 C.3       1 <0>        -0.4929
     36 C21         0.8621   -3.1095   -3.6394 C.3       1 <0>        -0.3596
     37 C22         0.6055   -4.3198   -4.5394 C.3       1 <0>        -0.1195
     38 C23         1.4345   -1.9637   -4.4764 C.3       1 <0>        -0.1282
     39 C24         1.8614   -3.4904   -2.5452 C.3       1 <0>        -0.1242
     40 H2          2.2760   -0.1291    1.8997 H         1 <0>         0.0808
     41 H3          0.8499    0.6256    1.1480 H         1 <0>         0.0703
     42 H4          0.7364   -0.0529    2.7897 H         1 <0>         0.0702
     43 H5         -1.2747   -1.0712    1.2542 H         1 <0>         0.1757
     44 H6         -2.9051   -2.5569    0.6934 H         1 <0>         0.1286
     45 H7         -2.9713   -2.5274   -1.6517 H         1 <0>         0.1045
     46 H8         -4.6632   -4.5321    0.5265 H         1 <0>         0.1155
     47 H9         -4.7651   -6.8703   -0.4641 H         1 <0>         0.0645
     48 H10        -3.0308   -7.0404   -0.1018 H         1 <0>         0.0901
     49 H11        -5.6368   -8.9310   -0.3597 H         1 <0>         0.0762
     50 H12        -6.0103  -10.1980    0.8334 H         1 <0>         0.0867
     51 H13        -6.7925   -8.6037    0.9539 H         1 <0>         0.0885
     52 H14        -2.0938   -9.0645    1.9355 H         1 <0>         0.0893
     53 H15        -3.0459  -10.4887    1.4526 H         1 <0>         0.0852
     54 H16        -2.6724   -9.2217    0.2596 H         1 <0>         0.0784
     55 H17        -6.9903   -8.4767    3.2962 H         1 <0>         0.0518
     56 H18        -6.4116   -8.3194    4.9721 H         1 <0>         0.0527
     57 H19        -6.0381   -7.0524    3.7790 H         1 <0>         0.0581
     58 H20        -4.1580  -10.8847    3.4894 H         1 <0>         0.0537
     59 H21        -5.3137  -10.5574    4.8029 H         1 <0>         0.0555
     60 H22        -5.8924  -10.7146    3.1270 H         1 <0>         0.0539
     61 H23        -3.6037   -7.2912    4.2876 H         1 <0>         0.0586
     62 H24        -3.9772   -8.5582    5.4807 H         1 <0>         0.0522
     63 H25        -2.8215   -8.8855    4.1671 H         1 <0>         0.0514
     64 H26        -3.2482   -6.1362   -4.2579 H         1 <0>         0.1613
     65 H27        -1.6038   -7.1196   -2.3875 H         1 <0>         0.3585
     66 H28        -4.5282   -6.8316   -3.2018 H         1 <0>         0.1628
     67 H29        -2.8926   -1.7859   -3.7309 H         1 <0>         0.1053
     68 H30        -1.5481   -1.2870   -4.7852 H         1 <0>         0.0748
     69 H31        -2.1387   -2.9655   -4.8301 H         1 <0>         0.1015
     70 H32         0.2606   -1.3734   -0.9622 H         1 <0>         0.0913
     71 H33         0.0111   -0.2880   -2.3507 H         1 <0>         0.0885
     72 H34        -1.3683   -0.7561   -1.3278 H         1 <0>         0.0798
     73 H35        -0.1064   -4.0485   -5.3190 H         1 <0>         0.0506
     74 H36         1.5423   -4.6372   -4.9974 H         1 <0>         0.0520
     75 H37         0.1977   -5.1361   -3.9431 H         1 <0>         0.0560
     76 H38         1.6174   -1.1014   -3.8352 H         1 <0>         0.0528
     77 H39         2.3713   -2.2811   -4.9344 H         1 <0>         0.0554
     78 H40         0.7226   -1.6924   -5.2559 H         1 <0>         0.0538
     79 H41         1.4537   -4.3066   -1.9489 H         1 <0>         0.0640
     80 H42         2.7982   -3.8077   -3.0032 H         1 <0>         0.0523
     81 H43         2.0443   -2.6281   -1.9040 H         1 <0>         0.0465
@<TRIPOS>BOND
     1    1    2 1
     2    1   40 1
     3    1   41 1
     4    1   42 1
     5    2    9 1
     6    2    3 2
     7    3    4 1
     8    3   43 1
     9    4    5 am
    10    4   11 1
    11    5    6 2
    12    5    7 am
    13    7    8 1
    14    7    9 am
    15    9   10 2
    16   11   15 1
    17   11   12 1
    18   11   44 1
    19   12   32 1
    20   12   45 1
    21   12   13 1
    22   13   25 1
    23   13   30 1
    24   13   14 1
    25   14   15 1
    26   14   16 1
    27   14   46 1
    28   16   17 1
    29   16   47 1
    30   16   48 1
    31   17   18 1
    32   18   19 1
    33   18   20 1
    34   18   21 1
    35   19   49 1
    36   19   50 1
    37   19   51 1
    38   20   52 1
    39   20   53 1
    40   20   54 1
    41   21   22 1
    42   21   23 1
    43   21   24 1
    44   22   55 1
    45   22   56 1
    46   22   57 1
    47   23   58 1
    48   23   59 1
    49   23   60 1
    50   24   61 1
    51   24   62 1
    52   24   63 1
    53   25   26 1
    54   25   31 2
    55   26   27 1
    56   26   64 1
    57   26   66 1
    58   27   28 2
    59   27   29 2
    60   27   30 1
    61   31   65 1
    62   32   33 1
    63   33   34 1
    64   33   35 1
    65   33   36 1
    66   34   67 1
    67   34   68 1
    68   34   69 1
    69   35   70 1
    70   35   71 1
    71   35   72 1
    72   36   37 1
    73   36   38 1
    74   36   39 1
    75   37   73 1
    76   37   74 1
    77   37   75 1
    78   38   76 1
    79   38   77 1
    80   38   78 1
    81   39   79 1
    82   39   80 1
    83   39   81 1
@<TRIPOS>MOLECULE
CHEMBL295246__17
   81    83     0     0     0
SMALL
USER_CHARGES

@<TRIPOS>ATOM
      1 C1         -0.9574    0.9660    1.0436 C.3       1 <0>        -0.0873
      2 C2         -0.8495   -0.4980    0.7029 C.2       1 <0>        -0.2523
      3 C3         -1.9583   -1.2236    0.4439 C.2       1 <0>         0.1651
      4 N1         -1.8424   -2.5519    0.1362 N.am      1 <0>        -0.5237
      5 C4         -0.6341   -3.1416    0.0897 C.2       1 <0>         0.7080
      6 O1         -0.5540   -4.3232   -0.1855 O.2       1 <0>        -0.5028
      7 N2          0.4875   -2.4419    0.3430 N.am      1 <0>        -0.6606
      8 H1          1.3508   -2.8825    0.3045 H         1 <0>         0.4316
      9 C5          0.4162   -1.1295    0.6443 C.2       1 <0>         0.5525
     10 O2          1.4308   -0.4945    0.8685 O.2       1 <0>        -0.5047
     11 C6         -3.0455   -3.3393   -0.1447 C.3       1 <0>         0.2900
     12 C7         -3.0773   -3.7611   -1.6305 C.3       1 <0>         0.0591
     13 C8         -3.6730   -5.1864   -1.6033 C.3       1 <0>         0.0227
     14 C9         -3.9301   -5.4575   -0.1046 C.3       1 <0>         0.1003
     15 O3         -3.0163   -4.5818    0.5910 O.3       1 <0>        -0.3266
     16 C10        -3.6274   -6.9191    0.2318 C.3       1 <0>         0.0743
     17 O4         -3.9814   -7.1780    1.5918 O.3       1 <0>        -0.6024
     18 Si1        -3.7025   -8.7124    2.0693 Si        1 <0>         1.1325
     19 C11        -4.6938   -9.8820    1.0110 C.3       1 <0>        -0.4886
     20 C12        -1.8888   -9.0985    1.8903 C.3       1 <0>        -0.4811
     21 C13        -4.2063   -8.9093    3.8521 C.3       1 <0>        -0.3675
     22 C14        -5.6959   -8.5921    3.9991 C.3       1 <0>        -0.1221
     23 C15        -3.9447  -10.3486    4.3000 C.3       1 <0>        -0.1281
     24 C16        -3.3922   -7.9487    4.7212 C.3       1 <0>        -0.1221
     25 C17        -2.6540   -6.1655   -2.1235 C.2       1 <0>         0.1877
     26 C18        -3.2506   -6.8536   -3.3518 C.3       1 <0>        -0.5934
     27 S1         -4.5988   -5.6624   -3.7434 S.o2      1 <0>         2.5408
     28 O5         -5.7621   -6.3400   -4.1983 O.2       1 <0>        -0.9191
     29 O6         -4.0910   -4.5227   -4.4234 O.2       1 <0>        -0.9140
     30 O7         -4.9208   -5.1889   -2.3047 O.3       1 <0>        -0.6596
     31 N3         -1.4952   -6.3827   -1.6265 N.2       1 <0>        -0.5432
     32 O8         -1.7557   -3.7810   -2.1738 O.3       1 <0>        -0.5808
     33 Si2        -1.4438   -2.5562   -3.2047 Si        1 <0>         1.1018
     34 C19        -2.5974   -2.6635   -4.6637 C.3       1 <0>        -0.4448
     35 C20        -1.6963   -0.9300   -2.3316 C.3       1 <0>        -0.4929
     36 C21         0.3186   -2.6762   -3.7965 C.3       1 <0>        -0.3576
     37 C22         0.5260   -4.0118   -4.5135 C.3       1 <0>        -0.1226
     38 C23         0.6113   -1.5273   -4.7636 C.3       1 <0>        -0.1289
     39 C24         1.2660   -2.5882   -2.5983 C.3       1 <0>        -0.1236
     40 H2          0.0391    1.3740    1.2130 H         1 <0>         0.0822
     41 H3         -1.4320    1.4971    0.2186 H         1 <0>         0.0726
     42 H4         -1.5572    1.0858    1.9458 H         1 <0>         0.0723
     43 H5         -2.9321   -0.7580    0.4799 H         1 <0>         0.1792
     44 H6         -3.9391   -2.7690    0.1088 H         1 <0>         0.1346
     45 H7         -3.7152   -3.0891   -2.2047 H         1 <0>         0.1113
     46 H8         -4.9605   -5.2134    0.1538 H         1 <0>         0.1233
     47 H9         -4.2051   -7.5701   -0.4243 H         1 <0>         0.0763
     48 H10        -2.5639   -7.1117    0.0902 H         1 <0>         0.0711
     49 H11        -4.3990   -9.7668   -0.0320 H         1 <0>         0.0796
     50 H12        -4.5074  -10.9075    1.3302 H         1 <0>         0.0882
     51 H13        -5.7550   -9.6561    1.1158 H         1 <0>         0.0898
     52 H14        -1.3087   -8.4142    2.5095 H         1 <0>         0.0890
     53 H15        -1.7024  -10.1240    2.2095 H         1 <0>         0.0877
     54 H16        -1.5940   -8.9833    0.8473 H         1 <0>         0.0815
     55 H17        -6.2759   -9.2765    3.3799 H         1 <0>         0.0524
     56 H18        -5.9906   -8.7073    5.0421 H         1 <0>         0.0532
     57 H19        -5.8822   -7.5667    3.6800 H         1 <0>         0.0579
     58 H20        -2.8835  -10.5746    4.1953 H         1 <0>         0.0541
     59 H21        -4.2395  -10.4638    5.3431 H         1 <0>         0.0560
     60 H22        -4.5247  -11.0330    3.6808 H         1 <0>         0.0545
     61 H23        -3.5786   -6.9233    4.4021 H         1 <0>         0.0581
     62 H24        -3.6870   -8.0639    5.7643 H         1 <0>         0.0529
     63 H25        -2.3310   -8.1746    4.6165 H         1 <0>         0.0515
     64 H26        -2.5263   -6.9153   -4.1640 H         1 <0>         0.1675
     65 H27        -1.2430   -5.9700   -0.7857 H         1 <0>         0.3849
     66 H28        -3.6491   -7.8370   -3.1024 H         1 <0>         0.1644
     67 H29        -3.6285   -2.5932   -4.3174 H         1 <0>         0.1024
     68 H30        -2.3889   -1.8449   -5.3526 H         1 <0>         0.0760
     69 H31        -2.4496   -3.6149   -5.1745 H         1 <0>         0.1086
     70 H32        -0.9533   -0.8227   -1.5413 H         1 <0>         0.0888
     71 H33        -1.5879   -0.1136   -3.0456 H         1 <0>         0.0895
     72 H34        -2.6956   -0.9022   -1.8970 H         1 <0>         0.0796
     73 H35        -0.1489   -4.0745   -5.3671 H         1 <0>         0.0521
     74 H36         1.5572   -4.0820   -4.8597 H         1 <0>         0.0529
     75 H37         0.3176   -4.8303   -3.8246 H         1 <0>         0.0619
     76 H38         0.4635   -0.5758   -4.2527 H         1 <0>         0.0524
     77 H39         1.6424   -1.5975   -5.1098 H         1 <0>         0.0568
     78 H40        -0.0637   -1.5901   -5.6172 H         1 <0>         0.0548
     79 H41         1.0576   -3.4067   -1.9093 H         1 <0>         0.0611
     80 H42         2.2972   -2.6584   -2.9445 H         1 <0>         0.0551
     81 H43         1.1183   -1.6367   -2.0875 H         1 <0>         0.0458
@<TRIPOS>BOND
     1    1    2 1
     2    1   40 1
     3    1   41 1
     4    1   42 1
     5    2    9 1
     6    2    3 2
     7    3    4 1
     8    3   43 1
     9    4    5 am
    10    4   11 1
    11    5    6 2
    12    5    7 am
    13    7    8 1
    14    7    9 am
    15    9   10 2
    16   11   15 1
    17   11   12 1
    18   11   44 1
    19   12   32 1
    20   12   45 1
    21   12   13 1
    22   13   25 1
    23   13   30 1
    24   13   14 1
    25   14   15 1
    26   14   16 1
    27   14   46 1
    28   16   17 1
    29   16   47 1
    30   16   48 1
    31   17   18 1
    32   18   19 1
    33   18   20 1
    34   18   21 1
    35   19   49 1
    36   19   50 1
    37   19   51 1
    38   20   52 1
    39   20   53 1
    40   20   54 1
    41   21   22 1
    42   21   23 1
    43   21   24 1
    44   22   55 1
    45   22   56 1
    46   22   57 1
    47   23   58 1
    48   23   59 1
    49   23   60 1
    50   24   61 1
    51   24   62 1
    52   24   63 1
    53   25   26 1
    54   25   31 2
    55   26   27 1
    56   26   64 1
    57   26   66 1
    58   27   28 2
    59   27   29 2
    60   27   30 1
    61   31   65 1
    62   32   33 1
    63   33   34 1
    64   33   35 1
    65   33   36 1
    66   34   67 1
    67   34   68 1
    68   34   69 1
    69   35   70 1
    70   35   71 1
    71   35   72 1
    72   36   37 1
    73   36   38 1
    74   36   39 1
    75   37   73 1
    76   37   74 1
    77   37   75 1
    78   38   76 1
    79   38   77 1
    80   38   78 1
    81   39   79 1
    82   39   80 1
    83   39   81 1
@<TRIPOS>MOLECULE
CHEMBL295246__18
   81    83     0     0     0
SMALL
USER_CHARGES

@<TRIPOS>ATOM
      1 C1          3.4249   -3.3044   -0.4206 C.3       1 <0>        -0.0853
      2 C2          2.1446   -2.5267   -0.5857 C.2       1 <0>        -0.2617
      3 C3          0.9671   -3.0553   -0.1895 C.2       1 <0>         0.1866
      4 N1         -0.1860   -2.3355   -0.3467 N.am      1 <0>        -0.5188
      5 C4         -0.1573   -1.1062   -0.8927 C.2       1 <0>         0.7005
      6 O1         -1.1938   -0.4842   -1.0234 O.2       1 <0>        -0.5326
      7 N2          1.0026   -0.5551   -1.2959 N.am      1 <0>        -0.6581
      8 H1          1.0054    0.3326   -1.6870 H         1 <0>         0.4336
      9 C5          2.1613   -1.2296   -1.1529 C.2       1 <0>         0.5529
     10 O2          3.2119   -0.7297   -1.5127 O.2       1 <0>        -0.5037
     11 C6         -1.4637   -2.9090    0.0832 C.3       1 <0>         0.3013
     12 C7         -2.1008   -3.7402   -1.0594 C.3       1 <0>         0.0521
     13 C8         -3.0064   -4.7237   -0.2787 C.3       1 <0>         0.0127
     14 C9         -2.4126   -4.7362    1.1432 C.3       1 <0>         0.1121
     15 O3         -1.2581   -3.8800    1.1317 O.3       1 <0>        -0.3346
     16 C10        -3.4434   -4.2063    2.1420 C.3       1 <0>         0.0623
     17 O4         -2.9280   -4.3300    3.4691 O.3       1 <0>        -0.6057
     18 Si1        -3.9434   -3.7945    4.6277 Si        1 <0>         1.1343
     19 C11        -4.3100   -1.9897    4.3464 C.3       1 <0>        -0.4836
     20 C12        -5.5302   -4.7683    4.5613 C.3       1 <0>        -0.4880
     21 C13        -3.1497   -4.0138    6.2989 C.3       1 <0>        -0.3688
     22 C14        -1.8465   -3.2140    6.3534 C.3       1 <0>        -0.1218
     23 C15        -4.1022   -3.5114    7.3857 C.3       1 <0>        -0.1280
     24 C16        -2.8486   -5.4960    6.5299 C.3       1 <0>        -0.1216
     25 C17        -2.8903   -6.0959   -0.8883 C.2       1 <0>         0.1965
     26 C18        -4.2797   -6.5123   -1.3724 C.3       1 <0>        -0.5951
     27 S1         -5.0966   -4.8627   -1.4084 S.o2      1 <0>         2.5550
     28 O5         -4.7266   -4.1355   -2.5717 O.2       1 <0>        -0.9250
     29 O6         -6.4520   -4.9555   -0.9918 O.2       1 <0>        -0.9075
     30 O7         -4.3370   -4.1974   -0.2345 O.3       1 <0>        -0.6586
     31 N3         -1.8197   -6.7900   -0.9838 N.2       1 <0>        -0.5502
     32 O8         -1.0998   -4.4445   -1.7969 O.3       1 <0>        -0.6063
     33 Si2        -1.1056   -4.1241   -3.3961 Si        1 <0>         1.1144
     34 C19        -2.5102   -5.0400   -4.2079 C.3       1 <0>        -0.5012
     35 C20        -1.3225   -2.2930   -3.6618 C.3       1 <0>        -0.4672
     36 C21         0.5092   -4.6734   -4.1454 C.3       1 <0>        -0.3656
     37 C22         0.6414   -6.1921   -4.0153 C.3       1 <0>        -0.1186
     38 C23         0.5440   -4.2833   -5.6244 C.3       1 <0>        -0.1311
     39 C24         1.6684   -3.9959   -3.4118 C.3       1 <0>        -0.1183
     40 H2          4.2606   -2.7116   -0.7923 H         1 <0>         0.0810
     41 H3          3.5798   -3.5294    0.6346 H         1 <0>         0.0711
     42 H4          3.3601   -4.2348   -0.9848 H         1 <0>         0.0719
     43 H5          0.9354   -4.0417    0.2491 H         1 <0>         0.1832
     44 H6         -2.1432   -2.1239    0.4149 H         1 <0>         0.1374
     45 H7         -2.6927   -3.1054   -1.7188 H         1 <0>         0.1231
     46 H8         -2.1192   -5.7506    1.4134 H         1 <0>         0.1350
     47 H9         -3.6501   -3.1575    1.9289 H         1 <0>         0.0720
     48 H10        -4.3640   -4.7832    2.0546 H         1 <0>         0.0776
     49 H11        -4.7744   -1.8614    3.3686 H         1 <0>         0.0820
     50 H12        -4.9886   -1.6318    5.1207 H         1 <0>         0.0877
     51 H13        -3.3816   -1.4200    4.3853 H         1 <0>         0.0881
     52 H14        -5.3157   -5.8242    4.7259 H         1 <0>         0.0882
     53 H15        -6.2088   -4.4104    5.3356 H         1 <0>         0.0877
     54 H16        -5.9946   -4.6400    3.5835 H         1 <0>         0.0826
     55 H17        -2.0610   -2.1581    6.1888 H         1 <0>         0.0512
     56 H18        -1.3821   -3.3424    7.3312 H         1 <0>         0.0523
     57 H19        -1.1679   -3.5719    5.5791 H         1 <0>         0.0583
     58 H20        -5.0306   -4.0812    7.3469 H         1 <0>         0.0543
     59 H21        -3.6378   -3.6397    8.3635 H         1 <0>         0.0553
     60 H22        -4.3167   -2.4555    7.2211 H         1 <0>         0.0540
     61 H23        -2.1700   -5.8538    5.7556 H         1 <0>         0.0574
     62 H24        -2.3842   -5.6243    7.5077 H         1 <0>         0.0526
     63 H25        -3.7770   -6.0657    6.4910 H         1 <0>         0.0518
     64 H26        -4.2377   -6.9569   -2.3667 H         1 <0>         0.1715
     65 H27        -0.9817   -6.4380   -0.6450 H         1 <0>         0.3701
     66 H28        -4.7648   -7.1807   -0.6610 H         1 <0>         0.1747
     67 H29        -3.4587   -4.6112   -3.8844 H         1 <0>         0.1255
     68 H30        -2.4228   -4.9533   -5.2909 H         1 <0>         0.0883
     69 H31        -2.4710   -6.0915   -3.9233 H         1 <0>         0.0900
     70 H32        -0.4475   -1.7647   -3.2830 H         1 <0>         0.0818
     71 H33        -1.4357   -2.0913   -4.7270 H         1 <0>         0.0935
     72 H34        -2.2111   -1.9515   -3.1308 H         1 <0>         0.0960
     73 H35        -0.1844   -6.6748   -4.5379 H         1 <0>         0.0526
     74 H36         1.5862   -6.5135   -4.4536 H         1 <0>         0.0552
     75 H37         0.6166   -6.4700   -2.9616 H         1 <0>         0.0582
     76 H38         0.4499   -3.2013   -5.7171 H         1 <0>         0.0530
     77 H39         1.4888   -4.6047   -6.0628 H         1 <0>         0.0593
     78 H40        -0.2818   -4.7660   -6.1470 H         1 <0>         0.0541
     79 H41         1.7037   -4.3509   -2.3819 H         1 <0>         0.0628
     80 H42         2.6061   -4.2382   -3.9120 H         1 <0>         0.0579
     81 H43         1.5213   -2.9159   -3.4190 H         1 <0>         0.0423
@<TRIPOS>BOND
     1    1    2 1
     2    1   40 1
     3    1   41 1
     4    1   42 1
     5    2    9 1
     6    2    3 2
     7    3    4 1
     8    3   43 1
     9    4    5 am
    10    4   11 1
    11    5    6 2
    12    5    7 am
    13    7    8 1
    14    7    9 am
    15    9   10 2
    16   11   15 1
    17   11   12 1
    18   11   44 1
    19   12   32 1
    20   12   45 1
    21   12   13 1
    22   13   25 1
    23   13   30 1
    24   13   14 1
    25   14   15 1
    26   14   16 1
    27   14   46 1
    28   16   17 1
    29   16   47 1
    30   16   48 1
    31   17   18 1
    32   18   19 1
    33   18   20 1
    34   18   21 1
    35   19   49 1
    36   19   50 1
    37   19   51 1
    38   20   52 1
    39   20   53 1
    40   20   54 1
    41   21   22 1
    42   21   23 1
    43   21   24 1
    44   22   55 1
    45   22   56 1
    46   22   57 1
    47   23   58 1
    48   23   59 1
    49   23   60 1
    50   24   61 1
    51   24   62 1
    52   24   63 1
    53   25   26 1
    54   25   31 2
    55   26   27 1
    56   26   64 1
    57   26   66 1
    58   27   28 2
    59   27   29 2
    60   27   30 1
    61   31   65 1
    62   32   33 1
    63   33   34 1
    64   33   35 1
    65   33   36 1
    66   34   67 1
    67   34   68 1
    68   34   69 1
    69   35   70 1
    70   35   71 1
    71   35   72 1
    72   36   37 1
    73   36   38 1
    74   36   39 1
    75   37   73 1
    76   37   74 1
    77   37   75 1
    78   38   76 1
    79   38   77 1
    80   38   78 1
    81   39   79 1
    82   39   80 1
    83   39   81 1
@<TRIPOS>MOLECULE
CHEMBL295246__19
   81    83     0     0     0
SMALL
USER_CHARGES

@<TRIPOS>ATOM
      1 C1          3.4261   -3.3087   -0.4230 C.3       1 <0>        -0.0839
      2 C2          2.1459   -2.5305   -0.5862 C.2       1 <0>        -0.2669
      3 C3          0.9685   -3.0594   -0.1899 C.2       1 <0>         0.1927
      4 N1         -0.1845   -2.3393   -0.3455 N.am      1 <0>        -0.5187
      5 C4         -0.1560   -1.1093   -0.8901 C.2       1 <0>         0.7000
      6 O1         -1.1925   -0.4870   -1.0194 O.2       1 <0>        -0.5341
      7 N2          1.0037   -0.5579   -1.2934 N.am      1 <0>        -0.6586
      8 H1          1.0065    0.3302   -1.6834 H         1 <0>         0.4330
      9 C5          2.1625   -1.2328   -1.1519 C.2       1 <0>         0.5532
     10 O2          3.2129   -0.7326   -1.5118 O.2       1 <0>        -0.5060
     11 C6         -1.4620   -2.9130    0.0845 C.3       1 <0>         0.3015
     12 C7         -2.0999   -3.7430   -1.0585 C.3       1 <0>         0.0576
     13 C8         -3.0052   -4.7272   -0.2784 C.3       1 <0>         0.0684
     14 C9         -2.4106   -4.7412    1.1432 C.3       1 <0>         0.1244
     15 O3         -1.2559   -3.8851    1.1319 O.3       1 <0>        -0.3283
     16 C10        -3.4407   -4.2122    2.1432 C.3       1 <0>         0.0576
     17 O4         -2.9246   -4.3373    3.4698 O.3       1 <0>        -0.6037
     18 Si1        -3.9393   -3.8028    4.6295 Si        1 <0>         1.1345
     19 C11        -4.3059   -1.9978    4.3502 C.3       1 <0>        -0.4840
     20 C12        -5.5263   -4.7764    4.5630 C.3       1 <0>        -0.4887
     21 C13        -3.1447   -4.0239    6.3000 C.3       1 <0>        -0.3689
     22 C14        -1.8413   -3.2244    6.3546 C.3       1 <0>        -0.1220
     23 C15        -4.0965   -3.5225    7.3879 C.3       1 <0>        -0.1277
     24 C16        -2.8436   -5.5063    6.5294 C.3       1 <0>        -0.1216
     25 C17        -2.8895   -6.0989   -0.8894 C.2       1 <0>         0.1911
     26 C18        -4.2793   -6.5146   -1.3731 C.3       1 <0>        -0.6639
     27 S1         -5.0960   -4.8649   -1.4070 S.o2      1 <0>         2.5561
     28 O5         -4.7266   -4.1365   -2.5698 O.2       1 <0>        -0.9228
     29 O6         -6.4512   -4.9579   -0.9898 O.2       1 <0>        -0.9080
     30 O7         -4.3357   -4.2008   -0.2329 O.3       1 <0>        -0.6565
     31 N3         -1.8191   -6.7929   -0.9862 N.2       1 <0>        -0.5445
     32 O8         -1.0994   -4.4468   -1.7974 O.3       1 <0>        -0.5734
     33 Si2        -1.1055   -4.1241   -3.3961 Si        1 <0>         1.1149
     34 C19        -2.5109   -5.0382   -4.2087 C.3       1 <0>        -0.5052
     35 C20        -1.3215   -2.2925   -3.6592 C.3       1 <0>        -0.4709
     36 C21         0.5087   -4.6732   -4.1467 C.3       1 <0>        -0.3654
     37 C22         0.6405   -6.1921   -4.0181 C.3       1 <0>        -0.1197
     38 C23         0.5430   -4.2817   -5.6253 C.3       1 <0>        -0.1300
     39 C24         1.6685   -3.9968   -3.4130 C.3       1 <0>        -0.1188
     40 H2          4.2617   -2.7155   -0.7944 H         1 <0>         0.0797
     41 H3          3.5817   -3.5350    0.6319 H         1 <0>         0.0704
     42 H4          3.3608   -4.2384   -0.9882 H         1 <0>         0.0714
     43 H5          0.9369   -4.0464    0.2475 H         1 <0>         0.1872
     44 H6         -2.1413   -2.1282    0.4174 H         1 <0>         0.1358
     45 H7         -2.6921   -3.1076   -1.7170 H         1 <0>         0.1178
     46 H8         -2.1171   -5.7559    1.4122 H         1 <0>         0.1408
     47 H9         -3.6475   -3.1632    1.9312 H         1 <0>         0.0713
     48 H10        -4.3615   -4.7890    2.0557 H         1 <0>         0.0754
     49 H11        -4.7708   -1.8684    3.3729 H         1 <0>         0.0820
     50 H12        -4.9840   -1.6406    5.1253 H         1 <0>         0.0874
     51 H13        -3.3774   -1.4282    4.3891 H         1 <0>         0.0884
     52 H14        -5.3117   -5.8325    4.7264 H         1 <0>         0.0875
     53 H15        -6.2044   -4.4192    5.3381 H         1 <0>         0.0873
     54 H16        -5.9912   -4.6471    3.5857 H         1 <0>         0.0818
     55 H17        -2.0559   -2.1682    6.1912 H         1 <0>         0.0512
     56 H18        -1.3764   -3.3537    7.3320 H         1 <0>         0.0520
     57 H19        -1.1632   -3.5815    5.5796 H         1 <0>         0.0591
     58 H20        -5.0250   -4.0921    7.3490 H         1 <0>         0.0539
     59 H21        -3.6316   -3.6519    8.3653 H         1 <0>         0.0550
     60 H22        -4.3110   -2.4664    7.2245 H         1 <0>         0.0540
     61 H23        -2.1654   -5.8635    5.7544 H         1 <0>         0.0580
     62 H24        -2.3787   -5.6357    7.5068 H         1 <0>         0.0523
     63 H25        -3.7721   -6.0759    6.4905 H         1 <0>         0.0513
     64 H26        -4.2378   -6.9582   -2.3679 H         1 <0>         0.1657
     65 H27        -1.8457   -7.6706   -1.3984 H         1 <0>         0.3664
     66 H28        -4.7640   -7.1837   -0.6621 H         1 <0>         0.1735
     67 H29        -3.4590   -4.6092   -3.8845 H         1 <0>         0.1235
     68 H30        -2.4237   -4.9501   -5.2916 H         1 <0>         0.0879
     69 H31        -2.4723   -6.0900   -3.9254 H         1 <0>         0.0789
     70 H32        -0.4461   -1.7652   -3.2800 H         1 <0>         0.0810
     71 H33        -1.4351   -2.0892   -4.7240 H         1 <0>         0.0929
     72 H34        -2.2097   -1.9513   -3.1274 H         1 <0>         0.0947
     73 H35        -0.1858   -6.6740   -4.5408 H         1 <0>         0.0480
     74 H36         1.5850   -6.5134   -4.4572 H         1 <0>         0.0538
     75 H37         0.6161   -6.4710   -2.9647 H         1 <0>         0.0628
     76 H38         0.4492   -3.1996   -5.7169 H         1 <0>         0.0530
     77 H39         1.4875   -4.6029   -6.0644 H         1 <0>         0.0582
     78 H40        -0.2832   -4.7636   -6.1480 H         1 <0>         0.0527
     79 H41         1.7041   -4.3528   -2.3834 H         1 <0>         0.0650
     80 H42         2.6059   -4.2389   -3.9138 H         1 <0>         0.0564
     81 H43         1.5218   -2.9167   -3.4191 H         1 <0>         0.0417
@<TRIPOS>BOND
     1    1    2 1
     2    1   40 1
     3    1   41 1
     4    1   42 1
     5    2    9 1
     6    2    3 2
     7    3    4 1
     8    3   43 1
     9    4    5 am
    10    4   11 1
    11    5    6 2
    12    5    7 am
    13    7    8 1
    14    7    9 am
    15    9   10 2
    16   11   15 1
    17   11   12 1
    18   11   44 1
    19   12   32 1
    20   12   45 1
    21   12   13 1
    22   13   25 1
    23   13   30 1
    24   13   14 1
    25   14   15 1
    26   14   16 1
    27   14   46 1
    28   16   17 1
    29   16   47 1
    30   16   48 1
    31   17   18 1
    32   18   19 1
    33   18   20 1
    34   18   21 1
    35   19   49 1
    36   19   50 1
    37   19   51 1
    38   20   52 1
    39   20   53 1
    40   20   54 1
    41   21   22 1
    42   21   23 1
    43   21   24 1
    44   22   55 1
    45   22   56 1
    46   22   57 1
    47   23   58 1
    48   23   59 1
    49   23   60 1
    50   24   61 1
    51   24   62 1
    52   24   63 1
    53   25   26 1
    54   25   31 2
    55   26   27 1
    56   26   64 1
    57   26   66 1
    58   27   28 2
    59   27   29 2
    60   27   30 1
    61   31   65 1
    62   32   33 1
    63   33   34 1
    64   33   35 1
    65   33   36 1
    66   34   67 1
    67   34   68 1
    68   34   69 1
    69   35   70 1
    70   35   71 1
    71   35   72 1
    72   36   37 1
    73   36   38 1
    74   36   39 1
    75   37   73 1
    76   37   74 1
    77   37   75 1
    78   38   76 1
    79   38   77 1
    80   38   78 1
    81   39   79 1
    82   39   80 1
    83   39   81 1
@<TRIPOS>MOLECULE
CHEMBL295246__20
   81    83     0     0     0
SMALL
USER_CHARGES

@<TRIPOS>ATOM
      1 C1         -0.5870    2.0413   -0.8348 C.3       1 <0>        -0.0870
      2 C2         -0.5202    0.6789   -0.1941 C.2       1 <0>        -0.2508
      3 C3         -1.5470   -0.1884   -0.3224 C.2       1 <0>         0.1563
      4 N1         -1.4700   -1.4215    0.2659 N.am      1 <0>        -0.5188
      5 C4         -0.3810   -1.7775    0.9711 C.2       1 <0>         0.6933
      6 O1         -0.3337   -2.8780    1.4859 O.2       1 <0>        -0.4704
      7 N2          0.6570   -0.9327    1.1145 N.am      1 <0>        -0.6622
      8 H1          1.4348   -1.2056    1.6258 H         1 <0>         0.4303
      9 C5          0.6224    0.2892    0.5454 C.2       1 <0>         0.5535
     10 O2          1.5632    1.0522    0.6703 O.2       1 <0>        -0.5116
     11 C6         -2.5841   -2.3626    0.1268 C.3       1 <0>         0.2933
     12 C7         -2.3653   -3.2775   -1.0987 C.3       1 <0>         0.0934
     13 C8         -2.9046   -4.6514   -0.6423 C.3       1 <0>         0.0175
     14 C9         -3.3862   -4.4042    0.8045 C.3       1 <0>         0.0725
     15 O3         -2.6264   -3.2620    1.2560 O.3       1 <0>        -0.2975
     16 C10        -3.0880   -5.6225    1.6807 C.3       1 <0>         0.0459
     17 O4         -1.7245   -6.0128    1.5057 O.3       1 <0>        -0.5827
     18 Si1        -1.2380   -7.1956    2.5178 Si        1 <0>         1.1436
     19 C11        -1.4959   -6.6499    4.2804 C.3       1 <0>        -0.4828
     20 C12        -2.2313   -8.7380    2.1936 C.3       1 <0>        -0.4579
     21 C13         0.5691   -7.5500    2.2357 C.3       1 <0>        -0.3774
     22 C14         1.3849   -6.2833    2.5020 C.3       1 <0>        -0.1163
     23 C15         1.0255   -8.6596    3.1851 C.3       1 <0>        -0.1246
     24 C16         0.7810   -7.9981    0.7882 C.3       1 <0>        -0.1219
     25 C17        -4.0779   -5.0413   -1.5019 C.2       1 <0>         0.1945
     26 C18        -3.7987   -6.4325   -2.0718 C.3       1 <0>        -0.6169
     27 S1         -2.4758   -6.9766   -0.9127 S.o2      1 <0>         2.5393
     28 O5         -3.0270   -7.4111    0.3229 O.2       1 <0>        -0.9174
     29 O6         -1.4845   -7.7364   -1.5904 O.2       1 <0>        -0.9128
     30 O7         -1.8310   -5.5981   -0.6264 O.3       1 <0>        -0.5739
     31 N3         -5.1226   -4.3345   -1.7168 N.2       1 <0>        -0.5847
     32 O8         -0.9748   -3.3657   -1.4159 O.3       1 <0>        -0.5540
     33 Si2        -0.6378   -3.1267   -2.9937 Si        1 <0>         1.1146
     34 C19        -1.6343   -4.3132   -4.0281 C.3       1 <0>        -0.4911
     35 C20        -1.0724   -1.3771   -3.4635 C.3       1 <0>        -0.4912
     36 C21         1.1781   -3.4169   -3.2918 C.3       1 <0>        -0.3508
     37 C22         1.5350   -4.8538   -2.9060 C.3       1 <0>        -0.1260
     38 C23         1.4942   -3.1928   -4.7719 C.3       1 <0>        -0.1296
     39 C24         1.9965   -2.4425   -2.4423 C.3       1 <0>        -0.1204
     40 H2          0.3322    2.5877   -0.6234 H         1 <0>         0.0823
     41 H3         -0.7040    1.9305   -1.9129 H         1 <0>         0.0704
     42 H4         -1.4374    2.5912   -0.4317 H         1 <0>         0.0710
     43 H5         -2.4251    0.0898   -0.8863 H         1 <0>         0.1728
     44 H6         -3.5267   -1.8229    0.0360 H         1 <0>         0.1184
     45 H7         -2.9290   -2.9092   -1.9558 H         1 <0>         0.0861
     46 H8         -4.4527   -4.1792    0.8162 H         1 <0>         0.1007
     47 H9         -3.2621   -5.3693    2.7265 H         1 <0>         0.0677
     48 H10        -3.7415   -6.4460    1.3926 H         1 <0>         0.1467
     49 H11        -2.5532   -6.4426    4.4455 H         1 <0>         0.0748
     50 H12        -1.1708   -7.4404    4.9567 H         1 <0>         0.0801
     51 H13        -0.9148   -5.7475    4.4701 H         1 <0>         0.0849
     52 H14        -2.0804   -9.0572    1.1624 H         1 <0>         0.0856
     53 H15        -1.9061   -9.5285    2.8699 H         1 <0>         0.0690
     54 H16        -3.2886   -8.5306    2.3587 H         1 <0>         0.0861
     55 H17         1.2340   -5.9641    3.5332 H         1 <0>         0.0462
     56 H18         2.4422   -6.4907    2.3369 H         1 <0>         0.0435
     57 H19         1.0597   -5.4928    1.8256 H         1 <0>         0.0670
     58 H20         0.4444   -9.5620    2.9953 H         1 <0>         0.0518
     59 H21         2.0828   -8.8669    3.0200 H         1 <0>         0.0514
     60 H22         0.8746   -8.3403    4.2163 H         1 <0>         0.0512
     61 H23         0.4558   -7.2077    0.1118 H         1 <0>         0.0564
     62 H24         1.8383   -8.2055    0.6231 H         1 <0>         0.0500
     63 H25         0.1998   -8.9005    0.5985 H         1 <0>         0.0497
     64 H26        -4.6770   -7.0743   -2.0021 H         1 <0>         0.1692
     65 H27        -5.2085   -3.4592   -1.3077 H         1 <0>         0.3538
     66 H28        -3.4311   -6.3760   -3.0963 H         1 <0>         0.1677
     67 H29        -2.6946   -4.0812   -3.9273 H         1 <0>         0.0795
     68 H30        -1.3398   -4.2198   -5.0734 H         1 <0>         0.0956
     69 H31        -1.4517   -5.3329   -3.6889 H         1 <0>         0.0886
     70 H32        -0.4283   -0.6847   -2.9215 H         1 <0>         0.0900
     71 H33        -0.9297   -1.2426   -4.5357 H         1 <0>         0.0895
     72 H34        -2.1137   -1.1803   -3.2081 H         1 <0>         0.0767
     73 H35         0.9520   -5.5480   -3.5112 H         1 <0>         0.0540
     74 H36         2.5975   -5.0236   -3.0804 H         1 <0>         0.0557
     75 H37         1.3099   -5.0135   -1.8515 H         1 <0>         0.0660
     76 H38         1.2399   -2.1691   -5.0468 H         1 <0>         0.0542
     77 H39         2.5567   -3.3626   -4.9463 H         1 <0>         0.0602
     78 H40         0.9112   -3.8870   -5.3771 H         1 <0>         0.0551
     79 H41         1.7713   -2.6022   -1.3878 H         1 <0>         0.0560
     80 H42         3.0590   -2.6123   -2.6167 H         1 <0>         0.0574
     81 H43         1.7422   -1.4188   -2.7171 H         1 <0>         0.0501
@<TRIPOS>BOND
     1    1    2 1
     2    1   40 1
     3    1   41 1
     4    1   42 1
     5    2    9 1
     6    2    3 2
     7    3    4 1
     8    3   43 1
     9    4    5 am
    10    4   11 1
    11    5    6 2
    12    5    7 am
    13    7    8 1
    14    7    9 am
    15    9   10 2
    16   11   15 1
    17   11   12 1
    18   11   44 1
    19   12   32 1
    20   12   45 1
    21   12   13 1
    22   13   25 1
    23   13   30 1
    24   13   14 1
    25   14   15 1
    26   14   16 1
    27   14   46 1
    28   16   17 1
    29   16   47 1
    30   16   48 1
    31   17   18 1
    32   18   19 1
    33   18   20 1
    34   18   21 1
    35   19   49 1
    36   19   50 1
    37   19   51 1
    38   20   52 1
    39   20   53 1
    40   20   54 1
    41   21   22 1
    42   21   23 1
    43   21   24 1
    44   22   55 1
    45   22   56 1
    46   22   57 1
    47   23   58 1
    48   23   59 1
    49   23   60 1
    50   24   61 1
    51   24   62 1
    52   24   63 1
    53   25   26 1
    54   25   31 2
    55   26   27 1
    56   26   64 1
    57   26   66 1
    58   27   28 2
    59   27   29 2
    60   27   30 1
    61   31   65 1
    62   32   33 1
    63   33   34 1
    64   33   35 1
    65   33   36 1
    66   34   67 1
    67   34   68 1
    68   34   69 1
    69   35   70 1
    70   35   71 1
    71   35   72 1
    72   36   37 1
    73   36   38 1
    74   36   39 1
    75   37   73 1
    76   37   74 1
    77   37   75 1
    78   38   76 1
    79   38   77 1
    80   38   78 1
    81   39   79 1
    82   39   80 1
    83   39   81 1
@<TRIPOS>MOLECULE
CHEMBL295246__21
   81    83     0     0     0
SMALL
USER_CHARGES

@<TRIPOS>ATOM
      1 C1         -0.5870    2.0413   -0.8349 C.3       1 <0>        -0.0861
      2 C2         -0.5202    0.6789   -0.1942 C.2       1 <0>        -0.2551
      3 C3         -1.5470   -0.1884   -0.3224 C.2       1 <0>         0.1601
      4 N1         -1.4700   -1.4215    0.2658 N.am      1 <0>        -0.5197
      5 C4         -0.3810   -1.7774    0.9711 C.2       1 <0>         0.6928
      6 O1         -0.3336   -2.8779    1.4859 O.2       1 <0>        -0.4716
      7 N2          0.6570   -0.9327    1.1145 N.am      1 <0>        -0.6626
      8 H1          1.4348   -1.2055    1.6258 H         1 <0>         0.4296
      9 C5          0.6224    0.2892    0.5453 C.2       1 <0>         0.5538
     10 O2          1.5633    1.0523    0.6703 O.2       1 <0>        -0.5139
     11 C6         -2.5840   -2.3626    0.1267 C.3       1 <0>         0.2990
     12 C7         -2.3653   -3.2775   -1.0987 C.3       1 <0>         0.1014
     13 C8         -2.9046   -4.6514   -0.6423 C.3       1 <0>         0.0746
     14 C9         -3.3862   -4.4042    0.8045 C.3       1 <0>         0.0798
     15 O3         -2.6264   -3.2620    1.2560 O.3       1 <0>        -0.3019
     16 C10        -3.0880   -5.6225    1.6807 C.3       1 <0>         0.0428
     17 O4         -1.7245   -6.0127    1.5058 O.3       1 <0>        -0.5831
     18 Si1        -1.2379   -7.1956    2.5178 Si        1 <0>         1.1438
     19 C11        -1.4959   -6.6499    4.2804 C.3       1 <0>        -0.4827
     20 C12        -2.2313   -8.7379    2.1936 C.3       1 <0>        -0.4588
     21 C13         0.5691   -7.5500    2.2357 C.3       1 <0>        -0.3779
     22 C14         1.3849   -6.2833    2.5020 C.3       1 <0>        -0.1166
     23 C15         1.0256   -8.6596    3.1851 C.3       1 <0>        -0.1243
     24 C16         0.7810   -7.9981    0.7882 C.3       1 <0>        -0.1219
     25 C17        -4.0779   -5.0413   -1.5019 C.2       1 <0>         0.1894
     26 C18        -3.7987   -6.4326   -2.0718 C.3       1 <0>        -0.6858
     27 S1         -2.4757   -6.9766   -0.9127 S.o2      1 <0>         2.5414
     28 O5         -3.0270   -7.4111    0.3229 O.2       1 <0>        -0.9161
     29 O6         -1.4845   -7.7364   -1.5904 O.2       1 <0>        -0.9139
     30 O7         -1.8310   -5.5981   -0.6264 O.3       1 <0>        -0.5734
     31 N3         -5.1225   -4.3345   -1.7168 N.2       1 <0>        -0.5981
     32 O8         -0.9747   -3.3657   -1.4159 O.3       1 <0>        -0.5585
     33 Si2        -0.6378   -3.1267   -2.9937 Si        1 <0>         1.1188
     34 C19        -1.6343   -4.3132   -4.0281 C.3       1 <0>        -0.4931
     35 C20        -1.0724   -1.3771   -3.4635 C.3       1 <0>        -0.4918
     36 C21         1.1781   -3.4169   -3.2918 C.3       1 <0>        -0.3529
     37 C22         1.5351   -4.8538   -2.9060 C.3       1 <0>        -0.1256
     38 C23         1.4942   -3.1928   -4.7719 C.3       1 <0>        -0.1289
     39 C24         1.9965   -2.4425   -2.4423 C.3       1 <0>        -0.1206
     40 H2          0.3322    2.5877   -0.6235 H         1 <0>         0.0815
     41 H3         -0.7040    1.9305   -1.9129 H         1 <0>         0.0697
     42 H4         -1.4374    2.5912   -0.4317 H         1 <0>         0.0705
     43 H5         -2.4251    0.0898   -0.8863 H         1 <0>         0.1735
     44 H6         -3.5267   -1.8229    0.0360 H         1 <0>         0.1253
     45 H7         -2.9290   -2.9092   -1.9558 H         1 <0>         0.0951
     46 H8         -4.4527   -4.1792    0.8162 H         1 <0>         0.1126
     47 H9         -3.2621   -5.3692    2.7265 H         1 <0>         0.0684
     48 H10        -3.7415   -6.4459    1.3926 H         1 <0>         0.1440
     49 H11        -2.5532   -6.4425    4.4455 H         1 <0>         0.0751
     50 H12        -1.1707   -7.4404    4.9567 H         1 <0>         0.0799
     51 H13        -0.9147   -5.7475    4.4701 H         1 <0>         0.0854
     52 H14        -2.0803   -9.0572    1.1624 H         1 <0>         0.0844
     53 H15        -1.9061   -9.5284    2.8700 H         1 <0>         0.0689
     54 H16        -3.2886   -8.5306    2.3587 H         1 <0>         0.0854
     55 H17         1.2340   -5.9640    3.5332 H         1 <0>         0.0465
     56 H18         2.4422   -6.4906    2.3369 H         1 <0>         0.0434
     57 H19         1.0598   -5.4928    1.8256 H         1 <0>         0.0675
     58 H20         0.4444   -9.5620    2.9954 H         1 <0>         0.0514
     59 H21         2.0829   -8.8669    3.0200 H         1 <0>         0.0512
     60 H22         0.8746   -8.3403    4.2163 H         1 <0>         0.0513
     61 H23         0.4558   -7.2076    0.1118 H         1 <0>         0.0563
     62 H24         1.8383   -8.2055    0.6231 H         1 <0>         0.0500
     63 H25         0.1998   -8.9005    0.5985 H         1 <0>         0.0491
     64 H26        -4.6769   -7.0743   -2.0021 H         1 <0>         0.1630
     65 H27        -5.8285   -4.6740   -2.2888 H         1 <0>         0.3718
     66 H28        -3.4310   -6.3761   -3.0963 H         1 <0>         0.1662
     67 H29        -2.6945   -4.0812   -3.9273 H         1 <0>         0.0766
     68 H30        -1.3398   -4.2198   -5.0734 H         1 <0>         0.0946
     69 H31        -1.4516   -5.3329   -3.6889 H         1 <0>         0.0863
     70 H32        -0.4282   -0.6847   -2.9215 H         1 <0>         0.0900
     71 H33        -0.9297   -1.2427   -4.5357 H         1 <0>         0.0888
     72 H34        -2.1136   -1.1803   -3.2081 H         1 <0>         0.0784
     73 H35         0.9520   -5.5480   -3.5112 H         1 <0>         0.0529
     74 H36         2.5975   -5.0236   -3.0804 H         1 <0>         0.0552
     75 H37         1.3099   -5.0135   -1.8515 H         1 <0>         0.0660
     76 H38         1.2399   -2.1691   -5.0468 H         1 <0>         0.0543
     77 H39         2.5567   -3.3626   -4.9463 H         1 <0>         0.0595
     78 H40         0.9112   -3.8870   -5.3771 H         1 <0>         0.0542
     79 H41         1.7713   -2.6022   -1.3878 H         1 <0>         0.0563
     80 H42         3.0590   -2.6123   -2.6167 H         1 <0>         0.0567
     81 H43         1.7422   -1.4188   -2.7172 H         1 <0>         0.0503
@<TRIPOS>BOND
     1    1    2 1
     2    1   40 1
     3    1   41 1
     4    1   42 1
     5    2    9 1
     6    2    3 2
     7    3    4 1
     8    3   43 1
     9    4    5 am
    10    4   11 1
    11    5    6 2
    12    5    7 am
    13    7    8 1
    14    7    9 am
    15    9   10 2
    16   11   15 1
    17   11   12 1
    18   11   44 1
    19   12   32 1
    20   12   45 1
    21   12   13 1
    22   13   25 1
    23   13   30 1
    24   13   14 1
    25   14   15 1
    26   14   16 1
    27   14   46 1
    28   16   17 1
    29   16   47 1
    30   16   48 1
    31   17   18 1
    32   18   19 1
    33   18   20 1
    34   18   21 1
    35   19   49 1
    36   19   50 1
    37   19   51 1
    38   20   52 1
    39   20   53 1
    40   20   54 1
    41   21   22 1
    42   21   23 1
    43   21   24 1
    44   22   55 1
    45   22   56 1
    46   22   57 1
    47   23   58 1
    48   23   59 1
    49   23   60 1
    50   24   61 1
    51   24   62 1
    52   24   63 1
    53   25   26 1
    54   25   31 2
    55   26   27 1
    56   26   64 1
    57   26   66 1
    58   27   28 2
    59   27   29 2
    60   27   30 1
    61   31   65 1
    62   32   33 1
    63   33   34 1
    64   33   35 1
    65   33   36 1
    66   34   67 1
    67   34   68 1
    68   34   69 1
    69   35   70 1
    70   35   71 1
    71   35   72 1
    72   36   37 1
    73   36   38 1
    74   36   39 1
    75   37   73 1
    76   37   74 1
    77   37   75 1
    78   38   76 1
    79   38   77 1
    80   38   78 1
    81   39   79 1
    82   39   80 1
    83   39   81 1
@<TRIPOS>MOLECULE
CHEMBL295246__22
   81    83     0     0     0
SMALL
USER_CHARGES

@<TRIPOS>ATOM
      1 C1          2.4763   -2.6144   -0.8891 C.3       1 <0>        -0.0890
      2 C2          1.1940   -1.9711   -0.4276 C.2       1 <0>        -0.2552
      3 C3          0.0394   -2.6712   -0.4260 C.2       1 <0>         0.1667
      4 N1         -1.1160   -2.0718   -0.0039 N.am      1 <0>        -0.5265
      5 C4         -1.1123   -0.7913    0.4091 C.2       1 <0>         0.7023
      6 O1         -2.1504   -0.2782    0.7798 O.2       1 <0>        -0.5330
      7 N2          0.0244   -0.0705    0.4182 N.am      1 <0>        -0.6581
      8 H1          0.0094    0.8513    0.7197 H         1 <0>         0.4326
      9 C5          1.1849   -0.6265    0.0154 C.2       1 <0>         0.5550
     10 O2          2.2147    0.0233    0.0282 O.2       1 <0>        -0.5035
     11 C6         -2.3687   -2.8312   -0.0021 C.3       1 <0>         0.2573
     12 C7         -2.5396   -3.5900   -1.3369 C.3       1 <0>         0.0932
     13 C8         -1.9773   -4.9985   -1.0425 C.3       1 <0>         0.0154
     14 C9         -1.5330   -4.9244    0.4350 C.3       1 <0>         0.0446
     15 O3         -2.3292   -3.8638    1.0069 O.3       1 <0>        -0.3175
     16 C10        -1.8210   -6.2488    1.1450 C.3       1 <0>         0.0547
     17 O4         -1.2985   -6.2002    2.4741 O.3       1 <0>        -0.5977
     18 Si1        -1.5460   -7.5635    3.3345 Si        1 <0>         1.1301
     19 C11        -3.3756   -7.8859    3.4744 C.3       1 <0>        -0.4858
     20 C12        -0.7267   -8.9984    2.4738 C.3       1 <0>        -0.4814
     21 C13        -0.8186   -7.3636    5.0379 C.3       1 <0>        -0.3677
     22 C14        -1.4915   -6.1852    5.7447 C.3       1 <0>        -0.1219
     23 C15        -1.0508   -8.6425    5.8449 C.3       1 <0>        -0.1278
     24 C16         0.6839   -7.0988    4.9229 C.3       1 <0>        -0.1232
     25 C17        -3.0768   -6.0177   -1.1850 C.2       1 <0>         0.1930
     26 C18        -2.5942   -7.0935   -2.1587 C.3       1 <0>        -0.5987
     27 S1         -0.7841   -6.7608   -2.1075 S.o2      1 <0>         2.5526
     28 O5         -0.1969   -6.9349   -3.3897 O.2       1 <0>        -0.9008
     29 O6         -0.1956   -7.3187   -0.9406 O.2       1 <0>        -0.9213
     30 O7         -0.8317   -5.2316   -1.8685 O.3       1 <0>        -0.6307
     31 N3         -4.2121   -5.9889   -0.5959 N.2       1 <0>        -0.5712
     32 O8         -1.7862   -2.9565   -2.3729 O.3       1 <0>        -0.5752
     33 Si2        -2.6238   -1.8367   -3.2122 Si        1 <0>         1.1038
     34 C19        -4.0993   -2.6396   -4.0178 C.3       1 <0>        -0.4804
     35 C20        -3.2013   -0.4963   -2.0544 C.3       1 <0>        -0.4743
     36 C21        -1.5275   -1.0950   -4.5233 C.3       1 <0>        -0.3528
     37 C22        -1.0533   -2.1958   -5.4742 C.3       1 <0>        -0.1251
     38 C23        -2.3132   -0.0444   -5.3107 C.3       1 <0>        -0.1312
     39 C24        -0.3157   -0.4356   -3.8617 C.3       1 <0>        -0.1231
     40 H2          3.2917   -1.8951   -0.8122 H         1 <0>         0.0829
     41 H3          2.6946   -3.4795   -0.2630 H         1 <0>         0.0713
     42 H4          2.3700   -2.9337   -1.9258 H         1 <0>         0.0744
     43 H5          0.0278   -3.6993   -0.7567 H         1 <0>         0.1860
     44 H6         -3.2148   -2.1657    0.1690 H         1 <0>         0.1733
     45 H7         -3.5928   -3.6466   -1.6119 H         1 <0>         0.1105
     46 H8         -0.4726   -4.6804    0.5007 H         1 <0>         0.1264
     47 H9         -2.8978   -6.4136    1.1836 H         1 <0>         0.0649
     48 H10        -1.3480   -7.0645    0.5982 H         1 <0>         0.1070
     49 H11        -3.8012   -8.0029    2.4778 H         1 <0>         0.0794
     50 H12        -3.5410   -8.7970    4.0494 H         1 <0>         0.0874
     51 H13        -3.8550   -7.0464    3.9780 H         1 <0>         0.0883
     52 H14         0.3437   -8.8097    2.3919 H         1 <0>         0.0930
     53 H15        -0.8922   -9.9095    3.0488 H         1 <0>         0.0865
     54 H16        -1.1523   -9.1153    1.4772 H         1 <0>         0.0841
     55 H17        -2.5619   -6.3739    5.8266 H         1 <0>         0.0516
     56 H18        -1.0659   -6.0683    6.7413 H         1 <0>         0.0530
     57 H19        -1.3260   -5.2741    5.1697 H         1 <0>         0.0579
     58 H20        -0.5715   -9.4820    5.3414 H         1 <0>         0.0548
     59 H21        -0.6252   -8.5255    6.8416 H         1 <0>         0.0559
     60 H22        -2.1213   -8.8311    5.9268 H         1 <0>         0.0538
     61 H23         0.8494   -6.1877    4.3480 H         1 <0>         0.0578
     62 H24         1.1095   -6.9819    5.9196 H         1 <0>         0.0532
     63 H25         1.1633   -7.9383    4.4194 H         1 <0>         0.0535
     64 H26        -2.8250   -8.0938   -1.7922 H         1 <0>         0.1739
     65 H27        -4.4269   -5.2607    0.0078 H         1 <0>         0.3646
     66 H28        -2.9993   -6.9358   -3.1582 H         1 <0>         0.1780
     67 H29        -4.7407   -3.0735   -3.2508 H         1 <0>         0.0815
     68 H30        -4.6590   -1.8911   -4.5788 H         1 <0>         0.0918
     69 H31        -3.7614   -3.4238   -4.6953 H         1 <0>         0.0945
     70 H32        -2.3380   -0.0265   -1.5830 H         1 <0>         0.0887
     71 H33        -3.7610    0.2521   -2.6153 H         1 <0>         0.0924
     72 H34        -3.8427   -0.9302   -1.2873 H         1 <0>         0.0853
     73 H35        -1.9165   -2.6655   -5.9455 H         1 <0>         0.0530
     74 H36        -0.4118   -1.7618   -6.2412 H         1 <0>         0.0582
     75 H37        -0.4935   -2.9442   -4.9132 H         1 <0>         0.0645
     76 H38        -2.6511    0.7398   -4.6332 H         1 <0>         0.0543
     77 H39        -1.6718    0.3895   -6.0777 H         1 <0>         0.0609
     78 H40        -3.1765   -0.5142   -5.7820 H         1 <0>         0.0553
     79 H41         0.2440   -1.1840   -3.3007 H         1 <0>         0.0608
     80 H42         0.3257   -0.0016   -4.6287 H         1 <0>         0.0594
     81 H43        -0.6536    0.3487   -3.1842 H         1 <0>         0.0478
@<TRIPOS>BOND
     1    1    2 1
     2    1   40 1
     3    1   41 1
     4    1   42 1
     5    2    9 1
     6    2    3 2
     7    3    4 1
     8    3   43 1
     9    4    5 am
    10    4   11 1
    11    5    6 2
    12    5    7 am
    13    7    8 1
    14    7    9 am
    15    9   10 2
    16   11   15 1
    17   11   12 1
    18   11   44 1
    19   12   32 1
    20   12   45 1
    21   12   13 1
    22   13   25 1
    23   13   30 1
    24   13   14 1
    25   14   15 1
    26   14   16 1
    27   14   46 1
    28   16   17 1
    29   16   47 1
    30   16   48 1
    31   17   18 1
    32   18   19 1
    33   18   20 1
    34   18   21 1
    35   19   49 1
    36   19   50 1
    37   19   51 1
    38   20   52 1
    39   20   53 1
    40   20   54 1
    41   21   22 1
    42   21   23 1
    43   21   24 1
    44   22   55 1
    45   22   56 1
    46   22   57 1
    47   23   58 1
    48   23   59 1
    49   23   60 1
    50   24   61 1
    51   24   62 1
    52   24   63 1
    53   25   26 1
    54   25   31 2
    55   26   27 1
    56   26   64 1
    57   26   66 1
    58   27   28 2
    59   27   29 2
    60   27   30 1
    61   31   65 1
    62   32   33 1
    63   33   34 1
    64   33   35 1
    65   33   36 1
    66   34   67 1
    67   34   68 1
    68   34   69 1
    69   35   70 1
    70   35   71 1
    71   35   72 1
    72   36   37 1
    73   36   38 1
    74   36   39 1
    75   37   73 1
    76   37   74 1
    77   37   75 1
    78   38   76 1
    79   38   77 1
    80   38   78 1
    81   39   79 1
    82   39   80 1
    83   39   81 1
@<TRIPOS>MOLECULE
CHEMBL295246__23
   81    83     0     0     0
SMALL
USER_CHARGES

@<TRIPOS>ATOM
      1 C1          2.4763   -2.6144   -0.8891 C.3       1 <0>        -0.0884
      2 C2          1.1940   -1.9711   -0.4276 C.2       1 <0>        -0.2583
      3 C3          0.0394   -2.6712   -0.4260 C.2       1 <0>         0.1690
      4 N1         -1.1160   -2.0718   -0.0039 N.am      1 <0>        -0.5284
      5 C4         -1.1123   -0.7913    0.4091 C.2       1 <0>         0.7018
      6 O1         -2.1504   -0.2782    0.7798 O.2       1 <0>        -0.5325
      7 N2          0.0244   -0.0705    0.4182 N.am      1 <0>        -0.6586
      8 H1          0.0094    0.8513    0.7197 H         1 <0>         0.4321
      9 C5          1.1849   -0.6265    0.0154 C.2       1 <0>         0.5555
     10 O2          2.2147    0.0233    0.0282 O.2       1 <0>        -0.5056
     11 C6         -2.3687   -2.8312   -0.0021 C.3       1 <0>         0.2622
     12 C7         -2.5396   -3.5900   -1.3369 C.3       1 <0>         0.1018
     13 C8         -1.9773   -4.9985   -1.0425 C.3       1 <0>         0.0721
     14 C9         -1.5330   -4.9244    0.4350 C.3       1 <0>         0.0563
     15 O3         -2.3292   -3.8638    1.0069 O.3       1 <0>        -0.3039
     16 C10        -1.8210   -6.2488    1.1450 C.3       1 <0>         0.0545
     17 O4         -1.2985   -6.2002    2.4741 O.3       1 <0>        -0.5966
     18 Si1        -1.5460   -7.5635    3.3345 Si        1 <0>         1.1325
     19 C11        -3.3756   -7.8859    3.4744 C.3       1 <0>        -0.4850
     20 C12        -0.7267   -8.9984    2.4738 C.3       1 <0>        -0.4836
     21 C13        -0.8186   -7.3636    5.0379 C.3       1 <0>        -0.3678
     22 C14        -1.4915   -6.1852    5.7447 C.3       1 <0>        -0.1222
     23 C15        -1.0508   -8.6425    5.8449 C.3       1 <0>        -0.1272
     24 C16         0.6839   -7.0988    4.9229 C.3       1 <0>        -0.1233
     25 C17        -3.0768   -6.0177   -1.1850 C.2       1 <0>         0.1864
     26 C18        -2.5942   -7.0935   -2.1587 C.3       1 <0>        -0.6671
     27 S1         -0.7841   -6.7608   -2.1075 S.o2      1 <0>         2.5539
     28 O5         -0.1969   -6.9349   -3.3897 O.2       1 <0>        -0.9016
     29 O6         -0.1956   -7.3187   -0.9406 O.2       1 <0>        -0.9195
     30 O7         -0.8317   -5.2316   -1.8685 O.3       1 <0>        -0.6290
     31 N3         -4.2121   -5.9889   -0.5959 N.2       1 <0>        -0.5769
     32 O8         -1.7862   -2.9565   -2.3729 O.3       1 <0>        -0.5809
     33 Si2        -2.6238   -1.8367   -3.2122 Si        1 <0>         1.1080
     34 C19        -4.0993   -2.6396   -4.0178 C.3       1 <0>        -0.4820
     35 C20        -3.2013   -0.4963   -2.0544 C.3       1 <0>        -0.4745
     36 C21        -1.5275   -1.0950   -4.5233 C.3       1 <0>        -0.3555
     37 C22        -1.0533   -2.1958   -5.4742 C.3       1 <0>        -0.1245
     38 C23        -2.3132   -0.0444   -5.3107 C.3       1 <0>        -0.1305
     39 C24        -0.3157   -0.4356   -3.8617 C.3       1 <0>        -0.1230
     40 H2          3.2917   -1.8951   -0.8122 H         1 <0>         0.0824
     41 H3          2.6946   -3.4795   -0.2630 H         1 <0>         0.0707
     42 H4          2.3700   -2.9337   -1.9258 H         1 <0>         0.0736
     43 H5          0.0278   -3.6993   -0.7567 H         1 <0>         0.1847
     44 H6         -3.2148   -2.1657    0.1690 H         1 <0>         0.1723
     45 H7         -3.5928   -3.6466   -1.6119 H         1 <0>         0.1190
     46 H8         -0.4726   -4.6804    0.5007 H         1 <0>         0.1210
     47 H9         -2.8978   -6.4136    1.1836 H         1 <0>         0.0753
     48 H10        -1.3480   -7.0645    0.5982 H         1 <0>         0.0992
     49 H11        -3.8012   -8.0029    2.4778 H         1 <0>         0.0758
     50 H12        -3.5410   -8.7970    4.0494 H         1 <0>         0.0862
     51 H13        -3.8550   -7.0464    3.9780 H         1 <0>         0.0893
     52 H14         0.3437   -8.8097    2.3919 H         1 <0>         0.0924
     53 H15        -0.8922   -9.9095    3.0488 H         1 <0>         0.0857
     54 H16        -1.1523   -9.1153    1.4772 H         1 <0>         0.0812
     55 H17        -2.5619   -6.3739    5.8266 H         1 <0>         0.0516
     56 H18        -1.0659   -6.0683    6.7413 H         1 <0>         0.0527
     57 H19        -1.3260   -5.2741    5.1697 H         1 <0>         0.0586
     58 H20        -0.5715   -9.4820    5.3414 H         1 <0>         0.0544
     59 H21        -0.6252   -8.5255    6.8416 H         1 <0>         0.0557
     60 H22        -2.1213   -8.8311    5.9268 H         1 <0>         0.0536
     61 H23         0.8494   -6.1877    4.3480 H         1 <0>         0.0583
     62 H24         1.1095   -6.9819    5.9196 H         1 <0>         0.0530
     63 H25         1.1633   -7.9383    4.4194 H         1 <0>         0.0531
     64 H26        -2.8250   -8.0938   -1.7922 H         1 <0>         0.1679
     65 H27        -4.8580   -6.6953   -0.7529 H         1 <0>         0.3745
     66 H28        -2.9993   -6.9358   -3.1582 H         1 <0>         0.1763
     67 H29        -4.7407   -3.0735   -3.2508 H         1 <0>         0.0822
     68 H30        -4.6590   -1.8911   -4.5788 H         1 <0>         0.0910
     69 H31        -3.7614   -3.4238   -4.6953 H         1 <0>         0.0921
     70 H32        -2.3380   -0.0265   -1.5830 H         1 <0>         0.0885
     71 H33        -3.7610    0.2521   -2.6153 H         1 <0>         0.0917
     72 H34        -3.8427   -0.9302   -1.2873 H         1 <0>         0.0869
     73 H35        -1.9165   -2.6655   -5.9455 H         1 <0>         0.0521
     74 H36        -0.4118   -1.7618   -6.2412 H         1 <0>         0.0573
     75 H37        -0.4935   -2.9442   -4.9132 H         1 <0>         0.0640
     76 H38        -2.6511    0.7398   -4.6332 H         1 <0>         0.0544
     77 H39        -1.6718    0.3895   -6.0777 H         1 <0>         0.0600
     78 H40        -3.1765   -0.5142   -5.7820 H         1 <0>         0.0547
     79 H41         0.2440   -1.1840   -3.3007 H         1 <0>         0.0609
     80 H42         0.3257   -0.0016   -4.6287 H         1 <0>         0.0584
     81 H43        -0.6536    0.3487   -3.1842 H         1 <0>         0.0480
@<TRIPOS>BOND
     1    1    2 1
     2    1   40 1
     3    1   41 1
     4    1   42 1
     5    2    9 1
     6    2    3 2
     7    3    4 1
     8    3   43 1
     9    4    5 am
    10    4   11 1
    11    5    6 2
    12    5    7 am
    13    7    8 1
    14    7    9 am
    15    9   10 2
    16   11   15 1
    17   11   12 1
    18   11   44 1
    19   12   32 1
    20   12   45 1
    21   12   13 1
    22   13   25 1
    23   13   30 1
    24   13   14 1
    25   14   15 1
    26   14   16 1
    27   14   46 1
    28   16   17 1
    29   16   47 1
    30   16   48 1
    31   17   18 1
    32   18   19 1
    33   18   20 1
    34   18   21 1
    35   19   49 1
    36   19   50 1
    37   19   51 1
    38   20   52 1
    39   20   53 1
    40   20   54 1
    41   21   22 1
    42   21   23 1
    43   21   24 1
    44   22   55 1
    45   22   56 1
    46   22   57 1
    47   23   58 1
    48   23   59 1
    49   23   60 1
    50   24   61 1
    51   24   62 1
    52   24   63 1
    53   25   26 1
    54   25   31 2
    55   26   27 1
    56   26   64 1
    57   26   66 1
    58   27   28 2
    59   27   29 2
    60   27   30 1
    61   31   65 1
    62   32   33 1
    63   33   34 1
    64   33   35 1
    65   33   36 1
    66   34   67 1
    67   34   68 1
    68   34   69 1
    69   35   70 1
    70   35   71 1
    71   35   72 1
    72   36   37 1
    73   36   38 1
    74   36   39 1
    75   37   73 1
    76   37   74 1
    77   37   75 1
    78   38   76 1
    79   38   77 1
    80   38   78 1
    81   39   79 1
    82   39   80 1
    83   39   81 1
@<TRIPOS>MOLECULE
CHEMBL295246__24
   81    83     0     0     0
SMALL
USER_CHARGES

@<TRIPOS>ATOM
      1 C1          0.0339    1.0156    0.9760 C.3       1 <0>        -0.0868
      2 C2         -0.1499   -0.4532    0.6931 C.2       1 <0>        -0.2504
      3 C3         -1.3866   -0.9676    0.5228 C.2       1 <0>         0.1679
      4 N1         -1.5355   -2.3035    0.2667 N.am      1 <0>        -0.5289
      5 C4         -0.4613   -3.1092    0.1835 C.2       1 <0>         0.6826
      6 O1         -0.6165   -4.2934   -0.0445 O.2       1 <0>        -0.4920
      7 N2          0.7828   -2.6228    0.3486 N.am      1 <0>        -0.6603
      8 H1          1.5465   -3.2175    0.2847 H         1 <0>         0.4315
      9 C5          0.9723   -1.3110    0.5967 C.2       1 <0>         0.5534
     10 O2          2.0978   -0.8691    0.7411 O.2       1 <0>        -0.5067
     11 C6         -2.8773   -2.8617    0.0819 C.3       1 <0>         0.2886
     12 C7         -3.0000   -3.5168   -1.3117 C.3       1 <0>         0.0688
     13 C8         -3.8808   -4.7620   -1.0649 C.3       1 <0>         0.0856
     14 C9         -4.1857   -4.7124    0.4485 C.3       1 <0>         0.1138
     15 O3         -3.1073   -3.9381    1.0171 O.3       1 <0>        -0.3204
     16 C10        -4.1948   -6.1249    1.0365 C.3       1 <0>         0.0715
     17 O4         -4.5922   -6.0674    2.4079 O.3       1 <0>        -0.6010
     18 Si1        -4.6396   -7.5209    3.1464 Si        1 <0>         1.1345
     19 C11        -5.8561   -8.6246    2.2674 C.3       1 <0>        -0.4906
     20 C12        -2.9473   -8.2982    3.0965 C.3       1 <0>        -0.4804
     21 C13        -5.1696   -7.3000    4.9187 C.3       1 <0>        -0.3674
     22 C14        -6.5594   -6.6616    4.9596 C.3       1 <0>        -0.1226
     23 C15        -5.2140   -8.6635    5.6114 C.3       1 <0>        -0.1275
     24 C16        -4.1705   -6.3935    5.6406 C.3       1 <0>        -0.1224
     25 C17        -3.0904   -6.0050   -1.3778 C.2       1 <0>         0.1672
     26 C18        -3.8206   -6.7557   -2.4921 C.3       1 <0>        -0.6738
     27 S1         -4.8904   -5.3971   -3.1242 S.o2      1 <0>         2.5670
     28 O5         -6.1707   -5.8877   -3.4975 O.2       1 <0>        -0.9180
     29 O6         -4.1568   -4.5211   -3.9690 O.2       1 <0>        -0.9153
     30 O7         -5.1030   -4.6272   -1.7976 O.3       1 <0>        -0.6310
     31 N3         -2.0017   -6.3681   -0.8123 N.2       1 <0>        -0.5386
     32 O8         -3.6379   -2.6262   -2.2293 O.3       1 <0>        -0.5852
     33 Si2        -2.6141   -1.9053   -3.2744 Si        1 <0>         1.1393
     34 C19        -1.4879   -0.7497   -2.3432 C.3       1 <0>        -0.5020
     35 C20        -1.5947   -3.2025   -4.1398 C.3       1 <0>        -0.4714
     36 C21        -3.5902   -0.9401   -4.5339 C.3       1 <0>        -0.3599
     37 C22        -4.4273    0.1252   -3.8232 C.3       1 <0>        -0.1226
     38 C23        -2.6298   -0.2638   -5.5143 C.3       1 <0>        -0.1298
     39 C24        -4.5151   -1.8891   -5.2987 C.3       1 <0>        -0.1163
     40 H2          1.0966    1.2361    1.0763 H         1 <0>         0.0818
     41 H3         -0.3822    1.5986    0.1544 H         1 <0>         0.0727
     42 H4         -0.4799    1.2743    1.9018 H         1 <0>         0.0724
     43 H5         -2.2542   -0.3278    0.5888 H         1 <0>         0.1798
     44 H6         -3.6313   -2.0843    0.2053 H         1 <0>         0.1379
     45 H7         -2.0181   -3.8087   -1.6843 H         1 <0>         0.1129
     46 H8         -5.1416   -4.2200    0.6270 H         1 <0>         0.1217
     47 H9         -4.8975   -6.7455    0.4803 H         1 <0>         0.0673
     48 H10        -3.1956   -6.5545    0.9655 H         1 <0>         0.0865
     49 H11        -5.5460   -8.7539    1.2305 H         1 <0>         0.0766
     50 H12        -5.8878   -9.5960    2.7609 H         1 <0>         0.0874
     51 H13        -6.8462   -8.1698    2.2966 H         1 <0>         0.0895
     52 H14        -2.2355   -7.6525    3.6108 H         1 <0>         0.0893
     53 H15        -2.9789   -9.2696    3.5900 H         1 <0>         0.0861
     54 H16        -2.6372   -8.4275    2.0596 H         1 <0>         0.0778
     55 H17        -7.2712   -7.3074    4.4454 H         1 <0>         0.0522
     56 H18        -6.8695   -6.5324    5.9966 H         1 <0>         0.0532
     57 H19        -6.5277   -5.6902    4.4661 H         1 <0>         0.0585
     58 H20        -4.2239   -9.1183    5.5823 H         1 <0>         0.0537
     59 H21        -5.5241   -8.5342    6.6484 H         1 <0>         0.0559
     60 H22        -5.9258   -9.3092    5.0971 H         1 <0>         0.0541
     61 H23        -4.1388   -5.4222    5.1471 H         1 <0>         0.0589
     62 H24        -4.4806   -6.2643    6.6775 H         1 <0>         0.0528
     63 H25        -3.1803   -6.8484    5.6114 H         1 <0>         0.0513
     64 H26        -3.1270   -7.1043   -3.2573 H         1 <0>         0.1640
     65 H27        -1.5644   -7.1900   -1.0846 H         1 <0>         0.3660
     66 H28        -4.4155   -7.5777   -2.0940 H         1 <0>         0.1665
     67 H29        -0.8222   -1.3286   -1.7030 H         1 <0>         0.0696
     68 H30        -0.8968   -0.1692   -3.0515 H         1 <0>         0.0883
     69 H31        -2.0857   -0.0752   -1.7302 H         1 <0>         0.0896
     70 H32        -2.2537   -3.8786   -4.6846 H         1 <0>         0.1198
     71 H33        -0.9105   -2.7207   -4.8382 H         1 <0>         0.0847
     72 H34        -1.0236   -3.7672   -3.4029 H         1 <0>         0.0743
     73 H35        -3.7684    0.8013   -3.2784 H         1 <0>         0.0516
     74 H36        -4.9984    0.6899   -4.5601 H         1 <0>         0.0546
     75 H37        -5.1115   -0.3566   -3.1247 H         1 <0>         0.0593
     76 H38        -2.0334   -1.0228   -6.0207 H         1 <0>         0.0535
     77 H39        -3.2009    0.3008   -6.2513 H         1 <0>         0.0575
     78 H40        -1.9709    0.4123   -4.9695 H         1 <0>         0.0532
     79 H41        -5.1993   -2.3709   -4.6002 H         1 <0>         0.0592
     80 H42        -5.0862   -1.3244   -6.0356 H         1 <0>         0.0476
     81 H43        -3.9187   -2.6481   -5.8050 H         1 <0>         0.0598
@<TRIPOS>BOND
     1    1    2 1
     2    1   40 1
     3    1   41 1
     4    1   42 1
     5    2    9 1
     6    2    3 2
     7    3    4 1
     8    3   43 1
     9    4    5 am
    10    4   11 1
    11    5    6 2
    12    5    7 am
    13    7    8 1
    14    7    9 am
    15    9   10 2
    16   11   15 1
    17   11   12 1
    18   11   44 1
    19   12   32 1
    20   12   45 1
    21   12   13 1
    22   13   25 1
    23   13   30 1
    24   13   14 1
    25   14   15 1
    26   14   16 1
    27   14   46 1
    28   16   17 1
    29   16   47 1
    30   16   48 1
    31   17   18 1
    32   18   19 1
    33   18   20 1
    34   18   21 1
    35   19   49 1
    36   19   50 1
    37   19   51 1
    38   20   52 1
    39   20   53 1
    40   20   54 1
    41   21   22 1
    42   21   23 1
    43   21   24 1
    44   22   55 1
    45   22   56 1
    46   22   57 1
    47   23   58 1
    48   23   59 1
    49   23   60 1
    50   24   61 1
    51   24   62 1
    52   24   63 1
    53   25   26 1
    54   25   31 2
    55   26   27 1
    56   26   64 1
    57   26   66 1
    58   27   28 2
    59   27   29 2
    60   27   30 1
    61   31   65 1
    62   32   33 1
    63   33   34 1
    64   33   35 1
    65   33   36 1
    66   34   67 1
    67   34   68 1
    68   34   69 1
    69   35   70 1
    70   35   71 1
    71   35   72 1
    72   36   37 1
    73   36   38 1
    74   36   39 1
    75   37   73 1
    76   37   74 1
    77   37   75 1
    78   38   76 1
    79   38   77 1
    80   38   78 1
    81   39   79 1
    82   39   80 1
    83   39   81 1
@<TRIPOS>MOLECULE
CHEMBL295246__25
   81    83     0     0     0
SMALL
USER_CHARGES

@<TRIPOS>ATOM
      1 C1          2.2506   -2.4683    0.1172 C.3       1 <0>        -0.0927
      2 C2          0.8687   -1.8949    0.2979 C.2       1 <0>        -0.2331
      3 C3         -0.2225   -2.6684    0.1136 C.2       1 <0>         0.1427
      4 N1         -1.4699   -2.1317    0.2818 N.am      1 <0>        -0.5266
      5 C4         -1.6192   -0.8403    0.6286 C.2       1 <0>         0.7095
      6 O1         -2.7369   -0.3837    0.7724 O.2       1 <0>        -0.5222
      7 N2         -0.5488   -0.0469    0.8191 N.am      1 <0>        -0.6547
      8 H1         -0.6743    0.8818    1.0696 H         1 <0>         0.4362
      9 C5          0.6975   -0.5394    0.6689 C.2       1 <0>         0.5541
     10 O2          1.6666    0.1764    0.8461 O.2       1 <0>        -0.4965
     11 C6         -2.6539   -2.9709    0.0818 C.3       1 <0>         0.2756
     12 C7         -2.6469   -3.5815   -1.3372 C.3       1 <0>         0.0652
     13 C8         -3.2204   -5.0021   -1.1373 C.3       1 <0>         0.0201
     14 C9         -3.5057   -5.0822    0.3786 C.3       1 <0>         0.0984
     15 O3         -2.6211   -4.1072    0.9726 O.3       1 <0>        -0.3440
     16 C10        -3.1872   -6.4822    0.9072 C.3       1 <0>         0.0718
     17 O4         -3.5665   -6.5698    2.2822 O.3       1 <0>        -0.6002
     18 Si1        -3.2737   -8.0243    2.9597 Si        1 <0>         1.1281
     19 C11        -4.2233   -9.3389    2.0426 C.3       1 <0>        -0.4870
     20 C12        -1.4507   -8.3967    2.8675 C.3       1 <0>        -0.4835
     21 C13        -3.8129   -7.9987    4.7428 C.3       1 <0>        -0.3639
     22 C14        -5.3101   -7.6928    4.8185 C.3       1 <0>        -0.1238
     23 C15        -3.5383   -9.3631    5.3783 C.3       1 <0>        -0.1288
     24 C16        -3.0331   -6.9190    5.4959 C.3       1 <0>        -0.1232
     25 C17        -2.1750   -6.0212   -1.5064 C.2       1 <0>         0.1929
     26 C18        -2.7340   -6.8730   -2.6467 C.3       1 <0>        -0.6068
     27 S1         -4.0920   -5.7675   -3.2153 S.o2      1 <0>         2.5632
     28 O5         -5.2343   -6.5195   -3.6012 O.2       1 <0>        -0.9112
     29 O6         -3.5876   -4.7159   -4.0272 O.2       1 <0>        -0.9129
     30 O7         -4.4526   -5.1183   -1.8565 O.3       1 <0>        -0.6262
     31 N3         -1.0240   -6.1509   -0.9630 N.2       1 <0>        -0.5790
     32 O8         -3.4830   -2.8226   -2.2130 O.3       1 <0>        -0.5730
     33 Si2        -2.6631   -1.8759   -3.2579 Si        1 <0>         1.1356
     34 C19        -1.7972   -0.5197   -2.3190 C.3       1 <0>        -0.5015
     35 C20        -1.4033   -2.9025   -4.1689 C.3       1 <0>        -0.4750
     36 C21        -3.8521   -1.1242   -4.4793 C.3       1 <0>        -0.3540
     37 C22        -4.8867   -0.2811   -3.7311 C.3       1 <0>        -0.1240
     38 C23        -3.0830   -0.2362   -5.4594 C.3       1 <0>        -0.1308
     39 C24        -4.5632   -2.2380   -5.2504 C.3       1 <0>        -0.1159
     40 H2          2.9933   -1.6951    0.3136 H         1 <0>         0.0871
     41 H3          2.3945   -3.2954    0.8124 H         1 <0>         0.0764
     42 H4          2.3633   -2.8292   -0.9051 H         1 <0>         0.0750
     43 H5         -0.1113   -3.7057   -0.1656 H         1 <0>         0.1635
     44 H6         -3.5618   -2.3893    0.2419 H         1 <0>         0.1577
     45 H7         -1.6303   -3.6291   -1.7274 H         1 <0>         0.0928
     46 H8         -4.5452   -4.8258    0.5832 H         1 <0>         0.1347
     47 H9         -3.7402   -7.2231    0.3299 H         1 <0>         0.0808
     48 H10        -2.1180   -6.6718    0.8124 H         1 <0>         0.0658
     49 H11        -3.9078   -9.3539    0.9994 H         1 <0>         0.0800
     50 H12        -4.0277  -10.3110    2.4954 H         1 <0>         0.0891
     51 H13        -5.2899   -9.1210    2.0966 H         1 <0>         0.0913
     52 H14        -0.8951   -7.6276    3.4040 H         1 <0>         0.0894
     53 H15        -1.2551   -9.3688    3.3202 H         1 <0>         0.0886
     54 H16        -1.1352   -8.4118    1.8242 H         1 <0>         0.0807
     55 H17        -5.8657   -8.4619    4.2820 H         1 <0>         0.0530
     56 H18        -5.6256   -7.6778    5.8617 H         1 <0>         0.0546
     57 H19        -5.5057   -6.7208    4.3657 H         1 <0>         0.0591
     58 H20        -2.4717   -9.5810    5.3243 H         1 <0>         0.0544
     59 H21        -3.8538   -9.3480    6.4215 H         1 <0>         0.0572
     60 H22        -4.0939  -10.1322    4.8418 H         1 <0>         0.0548
     61 H23        -3.2287   -5.9470    5.0431 H         1 <0>         0.0591
     62 H24        -3.3486   -6.9040    6.5391 H         1 <0>         0.0543
     63 H25        -1.9665   -7.1369    5.4419 H         1 <0>         0.0518
     64 H26        -1.9914   -7.0257   -3.4299 H         1 <0>         0.1753
     65 H27        -0.7826   -5.6012   -0.2012 H         1 <0>         0.3577
     66 H28        -3.1221   -7.8232   -2.2798 H         1 <0>         0.1737
     67 H29        -1.0147   -0.9519   -1.6952 H         1 <0>         0.0665
     68 H30        -1.3532    0.1837   -3.0234 H         1 <0>         0.0889
     69 H31        -2.5170    0.0028   -1.6888 H         1 <0>         0.0946
     70 H32        -1.9099   -3.6960   -4.7182 H         1 <0>         0.1244
     71 H33        -0.8554   -2.2699   -4.8671 H         1 <0>         0.0866
     72 H34        -0.7076   -3.3423   -3.4543 H         1 <0>         0.0729
     73 H35        -4.3801    0.5124   -3.1818 H         1 <0>         0.0517
     74 H36        -5.5824    0.1587   -4.4458 H         1 <0>         0.0563
     75 H37        -5.4347   -0.9138   -3.0329 H         1 <0>         0.0602
     76 H38        -2.3459   -0.8368   -5.9924 H         1 <0>         0.0551
     77 H39        -3.7787    0.2036   -6.1741 H         1 <0>         0.0593
     78 H40        -2.5764    0.5574   -4.9101 H         1 <0>         0.0527
     79 H41        -5.1112   -2.8707   -4.5521 H         1 <0>         0.0591
     80 H42        -5.2589   -1.7982   -5.9650 H         1 <0>         0.0491
     81 H43        -3.8262   -2.8387   -5.7834 H         1 <0>         0.0622
@<TRIPOS>BOND
     1    1    2 1
     2    1   40 1
     3    1   41 1
     4    1   42 1
     5    2    9 1
     6    2    3 2
     7    3    4 1
     8    3   43 1
     9    4    5 am
    10    4   11 1
    11    5    6 2
    12    5    7 am
    13    7    8 1
    14    7    9 am
    15    9   10 2
    16   11   15 1
    17   11   12 1
    18   11   44 1
    19   12   32 1
    20   12   45 1
    21   12   13 1
    22   13   25 1
    23   13   30 1
    24   13   14 1
    25   14   15 1
    26   14   16 1
    27   14   46 1
    28   16   17 1
    29   16   47 1
    30   16   48 1
    31   17   18 1
    32   18   19 1
    33   18   20 1
    34   18   21 1
    35   19   49 1
    36   19   50 1
    37   19   51 1
    38   20   52 1
    39   20   53 1
    40   20   54 1
    41   21   22 1
    42   21   23 1
    43   21   24 1
    44   22   55 1
    45   22   56 1
    46   22   57 1
    47   23   58 1
    48   23   59 1
    49   23   60 1
    50   24   61 1
    51   24   62 1
    52   24   63 1
    53   25   26 1
    54   25   31 2
    55   26   27 1
    56   26   64 1
    57   26   66 1
    58   27   28 2
    59   27   29 2
    60   27   30 1
    61   31   65 1
    62   32   33 1
    63   33   34 1
    64   33   35 1
    65   33   36 1
    66   34   67 1
    67   34   68 1
    68   34   69 1
    69   35   70 1
    70   35   71 1
    71   35   72 1
    72   36   37 1
    73   36   38 1
    74   36   39 1
    75   37   73 1
    76   37   74 1
    77   37   75 1
    78   38   76 1
    79   38   77 1
    80   38   78 1
    81   39   79 1
    82   39   80 1
    83   39   81 1
@<TRIPOS>MOLECULE
CHEMBL295246__26
   81    83     0     0     0
SMALL
USER_CHARGES

@<TRIPOS>ATOM
      1 C1          1.9767   -1.7831    2.0781 C.3       1 <0>        -0.0844
      2 C2          0.9552   -1.5740    0.9900 C.2       1 <0>        -0.2528
      3 C3         -0.1994   -2.2740    0.9918 C.2       1 <0>         0.1817
      4 N1         -1.1160   -2.0718   -0.0039 N.am      1 <0>        -0.5308
      5 C4         -0.8773   -1.1823   -0.9847 C.2       1 <0>         0.7106
      6 O1         -1.7053   -1.0186   -1.8599 O.2       1 <0>        -0.5480
      7 N2          0.2650   -0.4708   -1.0106 N.am      1 <0>        -0.6528
      8 H1          0.4208    0.1668   -1.7247 H         1 <0>         0.4309
      9 C5          1.1909   -0.6367   -0.0445 C.2       1 <0>         0.5577
     10 O2          2.2224    0.0104   -0.0643 O.2       1 <0>        -0.5122
     11 C6         -2.3687   -2.8312   -0.0021 C.3       1 <0>         0.2740
     12 C7         -2.5301   -3.6211   -1.3259 C.3       1 <0>         0.0716
     13 C8         -1.6581   -4.8733   -1.0647 C.3       1 <0>         0.0798
     14 C9         -1.5519   -4.9459    0.4709 C.3       1 <0>         0.0967
     15 O3         -2.3350   -3.8653    1.0050 O.3       1 <0>        -0.3096
     16 C10        -2.1038   -6.2835    0.9679 C.3       1 <0>         0.0834
     17 O4         -1.8954   -6.3906    2.3776 O.3       1 <0>        -0.6087
     18 Si1        -2.4456   -7.7825    3.0257 Si        1 <0>         1.1366
     19 C11        -4.2794   -7.9235    2.7289 C.3       1 <0>        -0.4815
     20 C12        -1.5751   -9.2247    2.2302 C.3       1 <0>        -0.4896
     21 C13        -2.1109   -7.7891    4.8584 C.3       1 <0>        -0.3705
     22 C14        -2.8259   -6.6047    5.5117 C.3       1 <0>        -0.1216
     23 C15        -2.6270   -9.0948    5.4664 C.3       1 <0>        -0.1277
     24 C16        -0.6049   -7.6733    5.1022 C.3       1 <0>        -0.1210
     25 C17        -0.2903   -4.6579   -1.6571 C.2       1 <0>         0.1941
     26 C18        -0.0581   -5.7455   -2.7066 C.3       1 <0>        -0.6695
     27 S1         -1.7975   -6.2860   -2.9750 S.o2      1 <0>         2.5604
     28 O5         -2.4878   -5.3800   -3.8247 O.2       1 <0>        -0.9119
     29 O6         -1.8702   -7.6911   -3.1741 O.2       1 <0>        -0.9124
     30 O7         -2.3466   -6.0308   -1.5499 O.3       1 <0>        -0.6301
     31 N3          0.5310   -3.7298   -1.3393 N.2       1 <0>        -0.5957
     32 O8         -3.8953   -3.9857   -1.5390 O.3       1 <0>        -0.5767
     33 Si2        -4.7457   -2.8957   -2.4042 Si        1 <0>         1.1228
     34 C19        -4.7464   -1.2596   -1.5130 C.3       1 <0>        -0.4932
     35 C20        -3.9637   -2.6884   -4.0824 C.3       1 <0>        -0.4593
     36 C21        -6.4986   -3.4939   -2.6055 C.3       1 <0>        -0.3711
     37 C22        -7.1408   -3.6641   -1.2273 C.3       1 <0>        -0.1212
     38 C23        -7.2964   -2.4713   -3.4172 C.3       1 <0>        -0.1296
     39 C24        -6.4980   -4.8375   -3.3374 C.3       1 <0>        -0.1232
     40 H2          2.8307   -1.1282    1.9055 H         1 <0>         0.0796
     41 H3          1.5302   -1.5509    3.0450 H         1 <0>         0.0703
     42 H4          2.3078   -2.8216    2.0708 H         1 <0>         0.0683
     43 H5         -0.3983   -2.9904    1.7751 H         1 <0>         0.1796
     44 H6         -3.2184   -2.1674    0.1577 H         1 <0>         0.1552
     45 H7         -2.1461   -3.0482   -2.1699 H         1 <0>         0.1212
     46 H8         -0.5113   -4.8357    0.7761 H         1 <0>         0.1103
     47 H9         -3.1711   -6.3385    0.7532 H         1 <0>         0.0861
     48 H10        -1.5888   -7.0998    0.4615 H         1 <0>         0.0730
     49 H11        -4.4753   -7.9196    1.6566 H         1 <0>         0.0838
     50 H12        -4.6471   -8.8537    3.1620 H         1 <0>         0.0864
     51 H13        -4.7888   -7.0797    3.1943 H         1 <0>         0.0897
     52 H14        -0.5022   -9.1422    2.4039 H         1 <0>         0.0869
     53 H15        -1.9428  -10.1549    2.6633 H         1 <0>         0.0873
     54 H16        -1.7709   -9.2208    1.1579 H         1 <0>         0.0815
     55 H17        -3.8988   -6.6872    5.3380 H         1 <0>         0.0518
     56 H18        -2.6300   -6.6086    6.5840 H         1 <0>         0.0515
     57 H19        -2.4581   -5.6745    5.0786 H         1 <0>         0.0586
     58 H20        -2.1177   -9.9386    5.0009 H         1 <0>         0.0536
     59 H21        -2.4312   -9.0987    6.5386 H         1 <0>         0.0547
     60 H22        -3.6999   -9.1773    5.2927 H         1 <0>         0.0541
     61 H23        -0.2372   -6.7431    4.6690 H         1 <0>         0.0572
     62 H24        -0.4090   -7.6772    6.1744 H         1 <0>         0.0520
     63 H25        -0.0955   -8.5171    4.6367 H         1 <0>         0.0510
     64 H26         0.3751   -5.3328   -3.6177 H         1 <0>         0.1661
     65 H27         1.3934   -3.6734   -1.7798 H         1 <0>         0.3745
     66 H28         0.5535   -6.5562   -2.3104 H         1 <0>         0.1731
     67 H29        -3.7209   -0.9096   -1.3952 H         1 <0>         0.1024
     68 H30        -5.3148   -0.5311   -2.0913 H         1 <0>         0.0872
     69 H31        -5.2040   -1.3809   -0.5312 H         1 <0>         0.0868
     70 H32        -3.9633   -3.6456   -4.6038 H         1 <0>         0.1078
     71 H33        -4.5321   -1.9599   -4.6606 H         1 <0>         0.0828
     72 H34        -2.9382   -2.3383   -3.9646 H         1 <0>         0.0873
     73 H35        -7.1412   -2.7069   -0.7059 H         1 <0>         0.0514
     74 H36        -8.1663   -4.0141   -1.3451 H         1 <0>         0.0531
     75 H37        -6.5724   -4.3926   -0.6491 H         1 <0>         0.0598
     76 H38        -6.8388   -2.3500   -4.3990 H         1 <0>         0.0539
     77 H39        -8.3219   -2.8213   -3.5350 H         1 <0>         0.0561
     78 H40        -7.2968   -1.5141   -2.8958 H         1 <0>         0.0535
     79 H41        -5.9296   -5.5659   -2.7592 H         1 <0>         0.0579
     80 H42        -7.5235   -5.1875   -3.4552 H         1 <0>         0.0530
     81 H43        -6.0405   -4.7162   -4.3193 H         1 <0>         0.0545
@<TRIPOS>BOND
     1    1    2 1
     2    1   40 1
     3    1   41 1
     4    1   42 1
     5    2    9 1
     6    2    3 2
     7    3    4 1
     8    3   43 1
     9    4    5 am
    10    4   11 1
    11    5    6 2
    12    5    7 am
    13    7    8 1
    14    7    9 am
    15    9   10 2
    16   11   15 1
    17   11   12 1
    18   11   44 1
    19   12   32 1
    20   12   45 1
    21   12   13 1
    22   13   25 1
    23   13   30 1
    24   13   14 1
    25   14   15 1
    26   14   16 1
    27   14   46 1
    28   16   17 1
    29   16   47 1
    30   16   48 1
    31   17   18 1
    32   18   19 1
    33   18   20 1
    34   18   21 1
    35   19   49 1
    36   19   50 1
    37   19   51 1
    38   20   52 1
    39   20   53 1
    40   20   54 1
    41   21   22 1
    42   21   23 1
    43   21   24 1
    44   22   55 1
    45   22   56 1
    46   22   57 1
    47   23   58 1
    48   23   59 1
    49   23   60 1
    50   24   61 1
    51   24   62 1
    52   24   63 1
    53   25   26 1
    54   25   31 2
    55   26   27 1
    56   26   64 1
    57   26   66 1
    58   27   28 2
    59   27   29 2
    60   27   30 1
    61   31   65 1
    62   32   33 1
    63   33   34 1
    64   33   35 1
    65   33   36 1
    66   34   67 1
    67   34   68 1
    68   34   69 1
    69   35   70 1
    70   35   71 1
    71   35   72 1
    72   36   37 1
    73   36   38 1
    74   36   39 1
    75   37   73 1
    76   37   74 1
    77   37   75 1
    78   38   76 1
    79   38   77 1
    80   38   78 1
    81   39   79 1
    82   39   80 1
    83   39   81 1
@<TRIPOS>MOLECULE
CHEMBL295246__27
   81    83     0     0     0
SMALL
USER_CHARGES

@<TRIPOS>ATOM
      1 C1          0.8407    0.1463   -2.3875 C.3       1 <0>        -0.0939
      2 C2          0.4066   -0.6362   -1.1749 C.2       1 <0>        -0.2127
      3 C3         -0.7534   -1.3271   -1.1858 C.2       1 <0>         0.1155
      4 N1         -1.1326   -2.0322   -0.0762 N.am      1 <0>        -0.5663
      5 C4         -0.3607   -2.0432    1.0257 C.2       1 <0>         0.6754
      6 O1         -0.7169   -2.6762    2.0007 O.2       1 <0>        -0.4844
      7 N2          0.8006   -1.3637    1.0636 N.am      1 <0>        -0.6596
      8 H1          1.3454   -1.3829    1.8659 H         1 <0>         0.4364
      9 C5          1.2124   -0.6614   -0.0112 C.2       1 <0>         0.5508
     10 O2          2.2655   -0.0505    0.0205 O.2       1 <0>        -0.4905
     11 C6         -2.3913   -2.7819   -0.0879 C.3       1 <0>         0.2588
     12 C7         -2.5286   -3.5974   -1.3988 C.3       1 <0>         0.0691
     13 C8         -1.6730   -4.8507   -1.0922 C.3       1 <0>         0.0239
     14 C9         -1.6027   -4.8926    0.4466 C.3       1 <0>         0.0941
     15 O3         -2.3890   -3.7953    0.9404 O.3       1 <0>        -0.2766
     16 C10        -2.1768   -6.2155    0.9578 C.3       1 <0>         0.0898
     17 O4         -2.0016   -6.2953    2.3737 O.3       1 <0>        -0.6015
     18 Si1        -2.5778   -7.6694    3.0371 Si        1 <0>         1.1354
     19 C11        -4.4054   -7.8024    2.7009 C.3       1 <0>        -0.4826
     20 C12        -1.7010   -9.1342    2.2913 C.3       1 <0>        -0.4908
     21 C13        -2.2853   -7.6411    4.8768 C.3       1 <0>        -0.3691
     22 C14        -3.0054   -6.4381    5.4892 C.3       1 <0>        -0.1219
     23 C15        -2.8259   -8.9301    5.4990 C.3       1 <0>        -0.1265
     24 C16        -0.7844   -7.5318    5.1529 C.3       1 <0>        -0.1217
     25 C17        -0.2903   -4.6579   -1.6571 C.2       1 <0>         0.1928
     26 C18        -0.0429   -5.7685   -2.6787 C.3       1 <0>        -0.6006
     27 S1         -1.7800   -6.3010   -2.9762 S.o2      1 <0>         2.5591
     28 O5         -2.4433   -5.4074   -3.8598 O.2       1 <0>        -0.9176
     29 O6         -1.8595   -7.7093   -3.1483 O.2       1 <0>        -0.9102
     30 O7         -2.3596   -6.0126   -1.5696 O.3       1 <0>        -0.6307
     31 N3          0.5310   -3.7298   -1.3393 N.2       1 <0>        -0.5813
     32 O8         -3.8914   -3.9559   -1.6360 O.3       1 <0>        -0.5653
     33 Si2        -4.7130   -2.8773   -2.5426 Si        1 <0>         1.1060
     34 C19        -4.7208   -1.2234   -1.6850 C.3       1 <0>        -0.4953
     35 C20        -3.8910   -2.7104   -4.2061 C.3       1 <0>        -0.4675
     36 C21        -6.4655   -3.4660   -2.7722 C.3       1 <0>        -0.3539
     37 C22        -7.1406   -3.6031   -1.4060 C.3       1 <0>        -0.1248
     38 C23        -7.2362   -2.4543   -3.6226 C.3       1 <0>        -0.1314
     39 C24        -6.4591   -4.8243   -3.4764 C.3       1 <0>        -0.1267
     40 H2          1.7979    0.6273   -2.1859 H         1 <0>         0.0880
     41 H3          0.9450   -0.5284   -3.2371 H         1 <0>         0.0786
     42 H4          0.0934    0.9060   -2.6164 H         1 <0>         0.0782
     43 H5         -1.3792   -1.3228   -2.0661 H         1 <0>         0.1772
     44 H6         -3.2389   -2.1085    0.0386 H         1 <0>         0.1584
     45 H7         -2.1207   -3.0448   -2.2452 H         1 <0>         0.1007
     46 H8         -0.5685   -4.7841    0.7735 H         1 <0>         0.0973
     47 H9         -3.2392   -6.2667    0.7196 H         1 <0>         0.0851
     48 H10        -1.6569   -7.0459    0.4800 H         1 <0>         0.0728
     49 H11        -4.5766   -7.8190    1.6245 H         1 <0>         0.0826
     50 H12        -4.7905   -8.7207    3.1442 H         1 <0>         0.0862
     51 H13        -4.9184   -6.9454    3.1372 H         1 <0>         0.0883
     52 H14        -0.6317   -9.0564    2.4880 H         1 <0>         0.0863
     53 H15        -2.0861  -10.0525    2.7346 H         1 <0>         0.0873
     54 H16        -1.8721   -9.1508    1.2150 H         1 <0>         0.0811
     55 H17        -4.0747   -6.5159    5.2925 H         1 <0>         0.0512
     56 H18        -2.8343   -6.4215    6.5656 H         1 <0>         0.0511
     57 H19        -2.6203   -5.5198    5.0459 H         1 <0>         0.0596
     58 H20        -2.3128   -9.7871    5.0627 H         1 <0>         0.0536
     59 H21        -2.6547   -8.9135    6.5754 H         1 <0>         0.0544
     60 H22        -3.8951   -9.0079    5.3023 H         1 <0>         0.0539
     61 H23        -0.3993   -6.6135    4.7096 H         1 <0>         0.0575
     62 H24        -0.6133   -7.5153    6.2292 H         1 <0>         0.0519
     63 H25        -0.2714   -8.3889    4.7166 H         1 <0>         0.0509
     64 H26         0.4144   -5.3779   -3.5877 H         1 <0>         0.1745
     65 H27         0.3225   -3.1270   -0.6085 H         1 <0>         0.3481
     66 H28         0.5528   -6.5755   -2.2521 H         1 <0>         0.1755
     67 H29        -3.6954   -0.8789   -1.5507 H         1 <0>         0.0761
     68 H30        -5.2698   -0.5026   -2.2909 H         1 <0>         0.0944
     69 H31        -5.2017   -1.3210   -0.7118 H         1 <0>         0.0950
     70 H32        -3.8864   -3.6780   -4.7078 H         1 <0>         0.1147
     71 H33        -4.4400   -1.9895   -4.8120 H         1 <0>         0.0881
     72 H34        -2.8656   -2.3659   -4.0717 H         1 <0>         0.0803
     73 H35        -7.1452   -2.6355   -0.9043 H         1 <0>         0.0532
     74 H36        -8.1659   -3.9476   -1.5403 H         1 <0>         0.0573
     75 H37        -6.5915   -4.3239   -0.8001 H         1 <0>         0.0618
     76 H38        -6.7552   -2.3566   -4.5959 H         1 <0>         0.0561
     77 H39        -8.2615   -2.7987   -3.7569 H         1 <0>         0.0600
     78 H40        -7.2407   -1.4866   -3.1209 H         1 <0>         0.0551
     79 H41        -5.9100   -5.5451   -2.8706 H         1 <0>         0.0601
     80 H42        -7.4844   -5.1688   -3.6108 H         1 <0>         0.0569
     81 H43        -5.9781   -4.7267   -4.4497 H         1 <0>         0.0570
@<TRIPOS>BOND
     1    1    2 1
     2    1   40 1
     3    1   41 1
     4    1   42 1
     5    2    9 1
     6    2    3 2
     7    3    4 1
     8    3   43 1
     9    4    5 am
    10    4   11 1
    11    5    6 2
    12    5    7 am
    13    7    8 1
    14    7    9 am
    15    9   10 2
    16   11   15 1
    17   11   12 1
    18   11   44 1
    19   12   32 1
    20   12   45 1
    21   12   13 1
    22   13   25 1
    23   13   30 1
    24   13   14 1
    25   14   15 1
    26   14   16 1
    27   14   46 1
    28   16   17 1
    29   16   47 1
    30   16   48 1
    31   17   18 1
    32   18   19 1
    33   18   20 1
    34   18   21 1
    35   19   49 1
    36   19   50 1
    37   19   51 1
    38   20   52 1
    39   20   53 1
    40   20   54 1
    41   21   22 1
    42   21   23 1
    43   21   24 1
    44   22   55 1
    45   22   56 1
    46   22   57 1
    47   23   58 1
    48   23   59 1
    49   23   60 1
    50   24   61 1
    51   24   62 1
    52   24   63 1
    53   25   26 1
    54   25   31 2
    55   26   27 1
    56   26   64 1
    57   26   66 1
    58   27   28 2
    59   27   29 2
    60   27   30 1
    61   31   65 1
    62   32   33 1
    63   33   34 1
    64   33   35 1
    65   33   36 1
    66   34   67 1
    67   34   68 1
    68   34   69 1
    69   35   70 1
    70   35   71 1
    71   35   72 1
    72   36   37 1
    73   36   38 1
    74   36   39 1
    75   37   73 1
    76   37   74 1
    77   37   75 1
    78   38   76 1
    79   38   77 1
    80   38   78 1
    81   39   79 1
    82   39   80 1
    83   39   81 1
@<TRIPOS>MOLECULE
CHEMBL295246__28
   81    83     0     0     0
SMALL
USER_CHARGES

@<TRIPOS>ATOM
      1 C1         -2.1510    1.3797    2.0993 C.3       1 <0>        -0.0868
      2 C2         -1.5981    0.0004    1.8485 C.2       1 <0>        -0.2497
      3 C3         -2.3268   -0.9172    1.1777 C.2       1 <0>         0.1633
      4 N1         -1.8095   -2.1650    0.9587 N.am      1 <0>        -0.5308
      5 C4         -0.5820   -2.4861    1.4060 C.2       1 <0>         0.6824
      6 O1         -0.1419   -3.6008    1.2007 O.2       1 <0>        -0.4875
      7 N2          0.1660   -1.5906    2.0771 N.am      1 <0>        -0.6609
      8 H1          1.0494   -1.8384    2.3920 H         1 <0>         0.4320
      9 C5         -0.3053   -0.3486    2.3081 C.2       1 <0>         0.5535
     10 O2          0.3728    0.4638    2.9108 O.2       1 <0>        -0.5076
     11 C6         -2.6001   -3.1607    0.2308 C.3       1 <0>         0.2955
     12 C7         -1.9594   -3.4559   -1.1435 C.3       1 <0>         0.0986
     13 C8         -2.1816   -4.9716   -1.3434 C.3       1 <0>         0.0860
     14 C9         -2.9310   -5.4130   -0.0667 C.3       1 <0>         0.0838
     15 O3         -2.5794   -4.4258    0.9272 O.3       1 <0>        -0.3225
     16 C10        -2.4626   -6.8016    0.3727 C.3       1 <0>         0.0362
     17 O4         -1.0352   -6.8245    0.4372 O.3       1 <0>        -0.5871
     18 Si1        -0.4225   -8.1866    1.0925 Si        1 <0>         1.1422
     19 C11        -0.9277   -8.2963    2.8824 C.3       1 <0>        -0.4855
     20 C12        -1.0764   -9.6677    0.1708 C.3       1 <0>        -0.4607
     21 C13         1.4363   -8.1516    0.9729 C.3       1 <0>        -0.3786
     22 C14         1.9733   -6.9353    1.7299 C.3       1 <0>        -0.1186
     23 C15         2.0110   -9.4294    1.5876 C.3       1 <0>        -0.1242
     24 C16         1.8512   -8.0615   -0.4970 C.3       1 <0>        -0.1227
     25 C17        -3.0616   -5.1962   -2.5446 C.2       1 <0>         0.1984
     26 C18        -2.3399   -6.1691   -3.4779 C.3       1 <0>        -0.6782
     27 S1         -1.1180   -6.8756   -2.2957 S.o2      1 <0>         2.5473
     28 O5         -1.7209   -7.8587   -1.4655 O.2       1 <0>        -0.9178
     29 O6          0.1317   -7.1070   -2.9313 O.2       1 <0>        -0.9167
     30 O7         -0.9125   -5.6316   -1.3969 O.3       1 <0>        -0.6010
     31 N3         -4.2088   -4.6676   -2.7478 N.2       1 <0>        -0.5633
     32 O8         -2.6169   -2.7135   -2.1724 O.3       1 <0>        -0.5875
     33 Si2        -1.6978   -1.5399   -2.8343 Si        1 <0>         1.1196
     34 C19        -1.1584   -0.3501   -1.5060 C.3       1 <0>        -0.4795
     35 C20        -0.1968   -2.3023   -3.6320 C.3       1 <0>        -0.4839
     36 C21        -2.6885   -0.6267   -4.1210 C.3       1 <0>        -0.3637
     37 C22        -3.9212   -0.0006   -3.4658 C.3       1 <0>        -0.1216
     38 C23        -1.8263    0.4742   -4.7419 C.3       1 <0>        -0.1305
     39 C24        -3.1315   -1.6038   -5.2118 C.3       1 <0>        -0.1225
     40 H2         -1.4175    1.9711    2.6472 H         1 <0>         0.0822
     41 H3         -2.3687    1.8626    1.1466 H         1 <0>         0.0715
     42 H4         -3.0669    1.3030    2.6853 H         1 <0>         0.0722
     43 H5         -3.3133   -0.6677    0.8159 H         1 <0>         0.1787
     44 H6         -3.6256   -2.8128    0.1064 H         1 <0>         0.1361
     45 H7         -0.8947   -3.2228   -1.1266 H         1 <0>         0.1069
     46 H8         -4.0073   -5.4115   -0.2389 H         1 <0>         0.1172
     47 H9         -2.8744   -7.0297    1.3558 H         1 <0>         0.0665
     48 H10        -2.8058   -7.5453   -0.3465 H         1 <0>         0.1515
     49 H11        -2.0152   -8.3168    2.9523 H         1 <0>         0.0744
     50 H12        -0.5182   -9.2066    3.3203 H         1 <0>         0.0797
     51 H13        -0.5451   -7.4298    3.4216 H         1 <0>         0.0834
     52 H14        -0.7808   -9.6036   -0.8764 H         1 <0>         0.0945
     53 H15        -0.6669  -10.5780    0.6088 H         1 <0>         0.0714
     54 H16        -2.1639   -9.6882    0.2408 H         1 <0>         0.0820
     55 H17         1.6777   -6.9995    2.7771 H         1 <0>         0.0473
     56 H18         3.0608   -6.9148    1.6599 H         1 <0>         0.0453
     57 H19         1.5638   -6.0250    1.2919 H         1 <0>         0.0660
     58 H20         1.6285  -10.2960    1.0484 H         1 <0>         0.0521
     59 H21         3.0986   -9.4089    1.5177 H         1 <0>         0.0517
     60 H22         1.7155   -9.4936    2.6348 H         1 <0>         0.0517
     61 H23         1.4417   -7.1512   -0.9350 H         1 <0>         0.0547
     62 H24         2.9387   -8.0411   -0.5670 H         1 <0>         0.0516
     63 H25         1.4686   -8.9281   -1.0363 H         1 <0>         0.0503
     64 H26        -3.0176   -6.9353   -3.8545 H         1 <0>         0.1609
     65 H27        -4.7021   -4.8753   -3.5568 H         1 <0>         0.3636
     66 H28        -1.8450   -5.6435   -4.2945 H         1 <0>         0.1617
     67 H29        -0.5345   -0.8732   -0.7813 H         1 <0>         0.0738
     68 H30        -0.5888    0.4629   -1.9561 H         1 <0>         0.0932
     69 H31        -2.0363    0.0559   -1.0036 H         1 <0>         0.0936
     70 H32        -0.5124   -2.9984   -4.4091 H         1 <0>         0.0883
     71 H33         0.4175   -1.5180   -4.0743 H         1 <0>         0.0922
     72 H34         0.3828   -2.8366   -2.8792 H         1 <0>         0.0869
     73 H35        -3.6056    0.6955   -2.6887 H         1 <0>         0.0527
     74 H36        -4.5009    0.5337   -4.2186 H         1 <0>         0.0541
     75 H37        -4.5355   -0.7849   -3.0235 H         1 <0>         0.0609
     76 H38        -0.9481    0.0281   -5.2086 H         1 <0>         0.0537
     77 H39        -2.4059    1.0085   -5.4947 H         1 <0>         0.0580
     78 H40        -1.5107    1.1703   -3.9647 H         1 <0>         0.0557
     79 H41        -3.7457   -2.3881   -4.7694 H         1 <0>         0.0564
     80 H42        -3.7111   -1.0695   -5.9646 H         1 <0>         0.0557
     81 H43        -2.2532   -2.0499   -5.6785 H         1 <0>         0.0501
@<TRIPOS>BOND
     1    1    2 1
     2    1   40 1
     3    1   41 1
     4    1   42 1
     5    2    9 1
     6    2    3 2
     7    3    4 1
     8    3   43 1
     9    4    5 am
    10    4   11 1
    11    5    6 2
    12    5    7 am
    13    7    8 1
    14    7    9 am
    15    9   10 2
    16   11   15 1
    17   11   12 1
    18   11   44 1
    19   12   32 1
    20   12   45 1
    21   12   13 1
    22   13   25 1
    23   13   30 1
    24   13   14 1
    25   14   15 1
    26   14   16 1
    27   14   46 1
    28   16   17 1
    29   16   47 1
    30   16   48 1
    31   17   18 1
    32   18   19 1
    33   18   20 1
    34   18   21 1
    35   19   49 1
    36   19   50 1
    37   19   51 1
    38   20   52 1
    39   20   53 1
    40   20   54 1
    41   21   22 1
    42   21   23 1
    43   21   24 1
    44   22   55 1
    45   22   56 1
    46   22   57 1
    47   23   58 1
    48   23   59 1
    49   23   60 1
    50   24   61 1
    51   24   62 1
    52   24   63 1
    53   25   26 1
    54   25   31 2
    55   26   27 1
    56   26   64 1
    57   26   66 1
    58   27   28 2
    59   27   29 2
    60   27   30 1
    61   31   65 1
    62   32   33 1
    63   33   34 1
    64   33   35 1
    65   33   36 1
    66   34   67 1
    67   34   68 1
    68   34   69 1
    69   35   70 1
    70   35   71 1
    71   35   72 1
    72   36   37 1
    73   36   38 1
    74   36   39 1
    75   37   73 1
    76   37   74 1
    77   37   75 1
    78   38   76 1
    79   38   77 1
    80   38   78 1
    81   39   79 1
    82   39   80 1
    83   39   81 1
@<TRIPOS>MOLECULE
CHEMBL295246__29
   81    83     0     0     0
SMALL
USER_CHARGES

@<TRIPOS>ATOM
      1 C1         -2.1503    1.3793    2.0995 C.3       1 <0>        -0.0875
      2 C2         -1.5974    0.0000    1.8486 C.2       1 <0>        -0.2462
      3 C3         -2.3262   -0.9175    1.1778 C.2       1 <0>         0.1598
      4 N1         -1.8091   -2.1653    0.9586 N.am      1 <0>        -0.5298
      5 C4         -0.5815   -2.4865    1.4058 C.2       1 <0>         0.6827
      6 O1         -0.1414   -3.6012    1.2004 O.2       1 <0>        -0.4859
      7 N2          0.1666   -1.5911    2.0768 N.am      1 <0>        -0.6604
      8 H1          1.0500   -1.8390    2.3917 H         1 <0>         0.4326
      9 C5         -0.3046   -0.3491    2.3080 C.2       1 <0>         0.5530
     10 O2          0.3736    0.4633    2.9106 O.2       1 <0>        -0.5056
     11 C6         -2.5997   -3.1609    0.2308 C.3       1 <0>         0.2912
     12 C7         -1.9593   -3.4560   -1.1437 C.3       1 <0>         0.0881
     13 C8         -2.1815   -4.9717   -1.3437 C.3       1 <0>         0.0311
     14 C9         -2.9307   -5.4132   -0.0670 C.3       1 <0>         0.0760
     15 O3         -2.5789   -4.4261    0.9270 O.3       1 <0>        -0.3189
     16 C10        -2.4622   -6.8019    0.3723 C.3       1 <0>         0.0394
     17 O4         -1.0348   -6.8248    0.4365 O.3       1 <0>        -0.5865
     18 Si1        -0.4220   -8.1870    1.0916 Si        1 <0>         1.1420
     19 C11        -0.9269   -8.2969    2.8815 C.3       1 <0>        -0.4857
     20 C12        -1.0760   -9.6680    0.1698 C.3       1 <0>        -0.4599
     21 C13         1.4368   -8.1519    0.9717 C.3       1 <0>        -0.3783
     22 C14         1.9739   -6.9356    1.7287 C.3       1 <0>        -0.1183
     23 C15         2.0117   -9.4298    1.5862 C.3       1 <0>        -0.1244
     24 C16         1.8514   -8.0617   -0.4983 C.3       1 <0>        -0.1228
     25 C17        -3.0617   -5.1962   -2.5447 C.2       1 <0>         0.2031
     26 C18        -2.3402   -6.1690   -3.4783 C.3       1 <0>        -0.6083
     27 S1         -1.1181   -6.8756   -2.2964 S.o2      1 <0>         2.5454
     28 O5         -1.7208   -7.8587   -1.4662 O.2       1 <0>        -0.9197
     29 O6          0.1315   -7.1069   -2.9322 O.2       1 <0>        -0.9162
     30 O7         -0.9124   -5.6316   -1.3975 O.3       1 <0>        -0.6024
     31 N3         -4.2090   -4.6675   -2.7477 N.2       1 <0>        -0.5617
     32 O8         -2.6170   -2.7135   -2.1724 O.3       1 <0>        -0.6125
     33 Si2        -1.6980   -1.5398   -2.8343 Si        1 <0>         1.1228
     34 C19        -1.1586   -0.3500   -1.5061 C.3       1 <0>        -0.4796
     35 C20        -0.1969   -2.3022   -3.6321 C.3       1 <0>        -0.4795
     36 C21        -2.6888   -0.6267   -4.1210 C.3       1 <0>        -0.3623
     37 C22        -3.9215   -0.0007   -3.4658 C.3       1 <0>        -0.1211
     38 C23        -1.8267    0.4742   -4.7420 C.3       1 <0>        -0.1317
     39 C24        -3.1317   -1.6039   -5.2118 C.3       1 <0>        -0.1247
     40 H2         -1.4167    1.9707    2.6474 H         1 <0>         0.0829
     41 H3         -2.3681    1.8623    1.1469 H         1 <0>         0.0721
     42 H4         -3.0661    1.3026    2.6857 H         1 <0>         0.0727
     43 H5         -3.3128   -0.6679    0.8161 H         1 <0>         0.1782
     44 H6         -3.6252   -2.8130    0.1066 H         1 <0>         0.1292
     45 H7         -0.8946   -3.2229   -1.1269 H         1 <0>         0.1130
     46 H8         -4.0071   -5.4117   -0.2389 H         1 <0>         0.1047
     47 H9         -2.8738   -7.0301    1.3554 H         1 <0>         0.0656
     48 H10        -2.8055   -7.5455   -0.3470 H         1 <0>         0.1542
     49 H11        -2.0144   -8.3174    2.9516 H         1 <0>         0.0740
     50 H12        -0.5173   -9.2072    3.3193 H         1 <0>         0.0798
     51 H13        -0.5443   -7.4304    3.4208 H         1 <0>         0.0829
     52 H14        -0.7806   -9.6037   -0.8774 H         1 <0>         0.0958
     53 H15        -0.6664  -10.5783    0.6076 H         1 <0>         0.0715
     54 H16        -2.1635   -9.6885    0.2399 H         1 <0>         0.0824
     55 H17         1.6785   -7.0000    2.7759 H         1 <0>         0.0469
     56 H18         3.0614   -6.9152    1.6585 H         1 <0>         0.0455
     57 H19         1.5643   -6.0253    1.2909 H         1 <0>         0.0655
     58 H20         1.6290  -10.2963    1.0468 H         1 <0>         0.0525
     59 H21         3.0992   -9.4093    1.5160 H         1 <0>         0.0520
     60 H22         1.7163   -9.4941    2.6334 H         1 <0>         0.0515
     61 H23         1.4419   -7.1513   -0.9361 H         1 <0>         0.0550
     62 H24         2.9390   -8.0412   -0.5685 H         1 <0>         0.0516
     63 H25         1.4688   -8.9282   -1.0376 H         1 <0>         0.0509
     64 H26        -3.0179   -6.9351   -3.8549 H         1 <0>         0.1668
     65 H27        -4.5854   -4.0591   -2.0927 H         1 <0>         0.3587
     66 H28        -1.8454   -5.6432   -4.2950 H         1 <0>         0.1635
     67 H29        -0.5346   -0.8730   -0.7814 H         1 <0>         0.0745
     68 H30        -0.5891    0.4631   -1.9562 H         1 <0>         0.0937
     69 H31        -2.0366    0.0560   -1.0037 H         1 <0>         0.0940
     70 H32        -0.5125   -2.9983   -4.4092 H         1 <0>         0.0927
     71 H33         0.4172   -1.5178   -4.0745 H         1 <0>         0.0930
     72 H34         0.3828   -2.8364   -2.8793 H         1 <0>         0.0887
     73 H35        -3.6060    0.6955   -2.6887 H         1 <0>         0.0528
     74 H36        -4.5012    0.5336   -4.2186 H         1 <0>         0.0566
     75 H37        -4.5357   -0.7850   -3.0234 H         1 <0>         0.0581
     76 H38        -0.9484    0.0282   -5.2087 H         1 <0>         0.0545
     77 H39        -2.4064    1.0084   -5.4947 H         1 <0>         0.0595
     78 H40        -1.5111    1.1704   -3.9648 H         1 <0>         0.0553
     79 H41        -3.7459   -2.3882   -4.7694 H         1 <0>         0.0624
     80 H42        -3.7114   -1.0697   -5.9646 H         1 <0>         0.0563
     81 H43        -2.2535   -2.0499   -5.6785 H         1 <0>         0.0512
@<TRIPOS>BOND
     1    1    2 1
     2    1   40 1
     3    1   41 1
     4    1   42 1
     5    2    9 1
     6    2    3 2
     7    3    4 1
     8    3   43 1
     9    4    5 am
    10    4   11 1
    11    5    6 2
    12    5    7 am
    13    7    8 1
    14    7    9 am
    15    9   10 2
    16   11   15 1
    17   11   12 1
    18   11   44 1
    19   12   32 1
    20   12   45 1
    21   12   13 1
    22   13   25 1
    23   13   30 1
    24   13   14 1
    25   14   15 1
    26   14   16 1
    27   14   46 1
    28   16   17 1
    29   16   47 1
    30   16   48 1
    31   17   18 1
    32   18   19 1
    33   18   20 1
    34   18   21 1
    35   19   49 1
    36   19   50 1
    37   19   51 1
    38   20   52 1
    39   20   53 1
    40   20   54 1
    41   21   22 1
    42   21   23 1
    43   21   24 1
    44   22   55 1
    45   22   56 1
    46   22   57 1
    47   23   58 1
    48   23   59 1
    49   23   60 1
    50   24   61 1
    51   24   62 1
    52   24   63 1
    53   25   26 1
    54   25   31 2
    55   26   27 1
    56   26   64 1
    57   26   66 1
    58   27   28 2
    59   27   29 2
    60   27   30 1
    61   31   65 1
    62   32   33 1
    63   33   34 1
    64   33   35 1
    65   33   36 1
    66   34   67 1
    67   34   68 1
    68   34   69 1
    69   35   70 1
    70   35   71 1
    71   35   72 1
    72   36   37 1
    73   36   38 1
    74   36   39 1
    75   37   73 1
    76   37   74 1
    77   37   75 1
    78   38   76 1
    79   38   77 1
    80   38   78 1
    81   39   79 1
    82   39   80 1
    83   39   81 1
@<TRIPOS>MOLECULE
CHEMBL295246__30
   81    83     0     0     0
SMALL
USER_CHARGES

@<TRIPOS>ATOM
      1 C1          1.9880   -1.8019    2.0637 C.3       1 <0>        -0.0887
      2 C2          0.9606   -1.5829    0.9831 C.2       1 <0>        -0.2478
      3 C3         -0.1939   -2.2830    0.9849 C.2       1 <0>         0.1569
      4 N1         -1.1160   -2.0718   -0.0039 N.am      1 <0>        -0.5412
      5 C4         -0.8826   -1.1735   -0.9780 C.2       1 <0>         0.7072
      6 O1         -1.7154   -1.0019   -1.8471 O.2       1 <0>        -0.5431
      7 N2          0.2595   -0.4618   -1.0037 N.am      1 <0>        -0.6534
      8 H1          0.4115    0.1823   -1.7129 H         1 <0>         0.4344
      9 C5          1.1907   -0.6363   -0.0442 C.2       1 <0>         0.5529
     10 O2          2.2221    0.0109   -0.0638 O.2       1 <0>        -0.5022
     11 C6         -2.3687   -2.8312   -0.0021 C.3       1 <0>         0.2737
     12 C7         -2.5301   -3.6211   -1.3259 C.3       1 <0>         0.0951
     13 C8         -1.6580   -4.8733   -1.0647 C.3       1 <0>         0.0758
     14 C9         -1.5519   -4.9459    0.4710 C.3       1 <0>         0.0674
     15 O3         -2.3350   -3.8653    1.0050 O.3       1 <0>        -0.3051
     16 C10        -2.1039   -6.2835    0.9679 C.3       1 <0>         0.0690
     17 O4         -1.8955   -6.3906    2.3776 O.3       1 <0>        -0.6016
     18 Si1        -2.4457   -7.7825    3.0257 Si        1 <0>         1.1362
     19 C11        -4.2795   -7.9235    2.7288 C.3       1 <0>        -0.4832
     20 C12        -1.5751   -9.2247    2.2302 C.3       1 <0>        -0.4874
     21 C13        -2.1110   -7.7892    4.8584 C.3       1 <0>        -0.3689
     22 C14        -2.8260   -6.6048    5.5117 C.3       1 <0>        -0.1219
     23 C15        -2.6272   -9.0949    5.4663 C.3       1 <0>        -0.1274
     24 C16        -0.6050   -7.6734    5.1022 C.3       1 <0>        -0.1228
     25 C17        -2.3738   -6.0936   -1.5810 C.2       1 <0>         0.1908
     26 C18        -1.4285   -6.8211   -2.5378 C.3       1 <0>        -0.6655
     27 S1          0.1678   -6.0598   -2.0258 S.o2      1 <0>         2.5580
     28 O5          0.6546   -6.6516   -0.8291 O.2       1 <0>        -0.9191
     29 O6          1.0152   -5.8493   -3.1468 O.2       1 <0>        -0.9096
     30 O7         -0.3567   -4.6601   -1.6221 O.3       1 <0>        -0.6560
     31 N3         -3.5613   -6.4571   -1.2735 N.2       1 <0>        -0.5454
     32 O8         -3.8952   -3.9858   -1.5389 O.3       1 <0>        -0.5709
     33 Si2        -4.7458   -2.8958   -2.4042 Si        1 <0>         1.1228
     34 C19        -4.7465   -1.2598   -1.5130 C.3       1 <0>        -0.4861
     35 C20        -3.9638   -2.6885   -4.0823 C.3       1 <0>        -0.4757
     36 C21        -6.4986   -3.4941   -2.6054 C.3       1 <0>        -0.3680
     37 C22        -7.1408   -3.6644   -1.2272 C.3       1 <0>        -0.1216
     38 C23        -7.2965   -2.4717   -3.4171 C.3       1 <0>        -0.1303
     39 C24        -6.4980   -4.8377   -3.3373 C.3       1 <0>        -0.1203
     40 H2          2.8411   -1.1454    1.8923 H         1 <0>         0.0828
     41 H3          1.5469   -1.5784    3.0351 H         1 <0>         0.0741
     42 H4          2.3191   -2.8402    2.0453 H         1 <0>         0.0740
     43 H5         -0.3886   -3.0064    1.7628 H         1 <0>         0.1861
     44 H6         -3.2184   -2.1674    0.1577 H         1 <0>         0.1557
     45 H7         -2.1461   -3.0482   -2.1699 H         1 <0>         0.1242
     46 H8         -0.5113   -4.8357    0.7762 H         1 <0>         0.1163
     47 H9         -3.1711   -6.3385    0.7532 H         1 <0>         0.1021
     48 H10        -1.5888   -7.0998    0.4615 H         1 <0>         0.0665
     49 H11        -4.4753   -7.9196    1.6565 H         1 <0>         0.0809
     50 H12        -4.6472   -8.8537    3.1619 H         1 <0>         0.0849
     51 H13        -4.7889   -7.0797    3.1942 H         1 <0>         0.0893
     52 H14        -0.5022   -9.1422    2.4039 H         1 <0>         0.0909
     53 H15        -1.9429  -10.1550    2.6633 H         1 <0>         0.0865
     54 H16        -1.7709   -9.2208    1.1579 H         1 <0>         0.0759
     55 H17        -3.8989   -6.6872    5.3380 H         1 <0>         0.0515
     56 H18        -2.6302   -6.6087    6.5839 H         1 <0>         0.0521
     57 H19        -2.4583   -5.6745    5.0786 H         1 <0>         0.0591
     58 H20        -2.1178   -9.9387    5.0009 H         1 <0>         0.0536
     59 H21        -2.4314   -9.0988    6.5386 H         1 <0>         0.0554
     60 H22        -3.7001   -9.1774    5.2926 H         1 <0>         0.0536
     61 H23        -0.2373   -6.7432    4.6691 H         1 <0>         0.0589
     62 H24        -0.4092   -7.6773    6.1745 H         1 <0>         0.0526
     63 H25        -0.0957   -8.5172    4.6368 H         1 <0>         0.0520
     64 H26        -1.4317   -7.8963   -2.3588 H         1 <0>         0.1662
     65 H27        -3.9373   -7.2632   -1.6605 H         1 <0>         0.3646
     66 H28        -1.6624   -6.5930   -3.5777 H         1 <0>         0.1715
     67 H29        -3.7210   -0.9097   -1.3953 H         1 <0>         0.1060
     68 H30        -5.3150   -0.5313   -2.0912 H         1 <0>         0.0893
     69 H31        -5.2041   -1.3811   -0.5311 H         1 <0>         0.0892
     70 H32        -3.9634   -3.6457   -4.6037 H         1 <0>         0.0866
     71 H33        -4.5323   -1.9601   -4.6606 H         1 <0>         0.0891
     72 H34        -2.9383   -2.3384   -3.9646 H         1 <0>         0.0910
     73 H35        -7.1412   -2.7072   -0.7058 H         1 <0>         0.0510
     74 H36        -8.1663   -4.0145   -1.3450 H         1 <0>         0.0519
     75 H37        -6.5724   -4.3928   -0.6490 H         1 <0>         0.0634
     76 H38        -6.8390   -2.3504   -4.3989 H         1 <0>         0.0528
     77 H39        -8.3220   -2.8217   -3.5348 H         1 <0>         0.0561
     78 H40        -7.2969   -1.5144   -2.8957 H         1 <0>         0.0544
     79 H41        -5.9295   -5.5662   -2.7591 H         1 <0>         0.0589
     80 H42        -7.5235   -5.1878   -3.4550 H         1 <0>         0.0529
     81 H43        -6.0405   -4.7165   -4.3192 H         1 <0>         0.0486
@<TRIPOS>BOND
     1    1    2 1
     2    1   40 1
     3    1   41 1
     4    1   42 1
     5    2    9 1
     6    2    3 2
     7    3    4 1
     8    3   43 1
     9    4    5 am
    10    4   11 1
    11    5    6 2
    12    5    7 am
    13    7    8 1
    14    7    9 am
    15    9   10 2
    16   11   15 1
    17   11   12 1
    18   11   44 1
    19   12   32 1
    20   12   45 1
    21   12   13 1
    22   13   25 1
    23   13   30 1
    24   13   14 1
    25   14   15 1
    26   14   16 1
    27   14   46 1
    28   16   17 1
    29   16   47 1
    30   16   48 1
    31   17   18 1
    32   18   19 1
    33   18   20 1
    34   18   21 1
    35   19   49 1
    36   19   50 1
    37   19   51 1
    38   20   52 1
    39   20   53 1
    40   20   54 1
    41   21   22 1
    42   21   23 1
    43   21   24 1
    44   22   55 1
    45   22   56 1
    46   22   57 1
    47   23   58 1
    48   23   59 1
    49   23   60 1
    50   24   61 1
    51   24   62 1
    52   24   63 1
    53   25   26 1
    54   25   31 2
    55   26   27 1
    56   26   64 1
    57   26   66 1
    58   27   28 2
    59   27   29 2
    60   27   30 1
    61   31   65 1
    62   32   33 1
    63   33   34 1
    64   33   35 1
    65   33   36 1
    66   34   67 1
    67   34   68 1
    68   34   69 1
    69   35   70 1
    70   35   71 1
    71   35   72 1
    72   36   37 1
    73   36   38 1
    74   36   39 1
    75   37   73 1
    76   37   74 1
    77   37   75 1
    78   38   76 1
    79   38   77 1
    80   38   78 1
    81   39   79 1
    82   39   80 1
    83   39   81 1
@<TRIPOS>MOLECULE
CHEMBL295246__31
   81    83     0     0     0
SMALL
USER_CHARGES

@<TRIPOS>ATOM
      1 C1          1.9880   -1.8019    2.0637 C.3       1 <0>        -0.0891
      2 C2          0.9606   -1.5829    0.9831 C.2       1 <0>        -0.2453
      3 C3         -0.1939   -2.2830    0.9849 C.2       1 <0>         0.1554
      4 N1         -1.1160   -2.0718   -0.0039 N.am      1 <0>        -0.5402
      5 C4         -0.8826   -1.1735   -0.9780 C.2       1 <0>         0.7080
      6 O1         -1.7154   -1.0019   -1.8471 O.2       1 <0>        -0.5438
      7 N2          0.2595   -0.4618   -1.0037 N.am      1 <0>        -0.6529
      8 H1          0.4115    0.1823   -1.7129 H         1 <0>         0.4348
      9 C5          1.1907   -0.6363   -0.0442 C.2       1 <0>         0.5527
     10 O2          2.2221    0.0109   -0.0638 O.2       1 <0>        -0.5006
     11 C6         -2.3687   -2.8312   -0.0021 C.3       1 <0>         0.2742
     12 C7         -2.5301   -3.6211   -1.3259 C.3       1 <0>         0.0882
     13 C8         -1.6580   -4.8733   -1.0647 C.3       1 <0>         0.0211
     14 C9         -1.5519   -4.9459    0.4710 C.3       1 <0>         0.0547
     15 O3         -2.3350   -3.8653    1.0050 O.3       1 <0>        -0.3109
     16 C10        -2.1039   -6.2835    0.9679 C.3       1 <0>         0.0719
     17 O4         -1.8955   -6.3906    2.3776 O.3       1 <0>        -0.5999
     18 Si1        -2.4457   -7.7825    3.0257 Si        1 <0>         1.1312
     19 C11        -4.2795   -7.9235    2.7288 C.3       1 <0>        -0.4848
     20 C12        -1.5751   -9.2247    2.2302 C.3       1 <0>        -0.4845
     21 C13        -2.1110   -7.7892    4.8584 C.3       1 <0>        -0.3674
     22 C14        -2.8260   -6.6048    5.5117 C.3       1 <0>        -0.1217
     23 C15        -2.6272   -9.0949    5.4663 C.3       1 <0>        -0.1283
     24 C16        -0.6050   -7.6734    5.1022 C.3       1 <0>        -0.1231
     25 C17        -2.3738   -6.0936   -1.5810 C.2       1 <0>         0.1954
     26 C18        -1.4285   -6.8211   -2.5378 C.3       1 <0>        -0.5964
     27 S1          0.1678   -6.0598   -2.0258 S.o2      1 <0>         2.5565
     28 O5          0.6546   -6.6516   -0.8291 O.2       1 <0>        -0.9216
     29 O6          1.0152   -5.8493   -3.1468 O.2       1 <0>        -0.9095
     30 O7         -0.3567   -4.6601   -1.6221 O.3       1 <0>        -0.6586
     31 N3         -3.5613   -6.4571   -1.2735 N.2       1 <0>        -0.5536
     32 O8         -3.8952   -3.9858   -1.5389 O.3       1 <0>        -0.6088
     33 Si2        -4.7458   -2.8958   -2.4042 Si        1 <0>         1.1224
     34 C19        -4.7465   -1.2598   -1.5130 C.3       1 <0>        -0.4841
     35 C20        -3.9638   -2.6885   -4.0823 C.3       1 <0>        -0.4695
     36 C21        -6.4986   -3.4941   -2.6054 C.3       1 <0>        -0.3686
     37 C22        -7.1408   -3.6644   -1.2272 C.3       1 <0>        -0.1216
     38 C23        -7.2965   -2.4717   -3.4171 C.3       1 <0>        -0.1314
     39 C24        -6.4980   -4.8377   -3.3373 C.3       1 <0>        -0.1227
     40 H2          2.8411   -1.1454    1.8923 H         1 <0>         0.0833
     41 H3          1.5469   -1.5784    3.0351 H         1 <0>         0.0742
     42 H4          2.3191   -2.8402    2.0453 H         1 <0>         0.0745
     43 H5         -0.3886   -3.0064    1.7628 H         1 <0>         0.1858
     44 H6         -3.2184   -2.1674    0.1577 H         1 <0>         0.1563
     45 H7         -2.1461   -3.0482   -2.1699 H         1 <0>         0.1304
     46 H8         -0.5113   -4.8357    0.7762 H         1 <0>         0.1233
     47 H9         -3.1711   -6.3385    0.7532 H         1 <0>         0.0697
     48 H10        -1.5888   -7.0998    0.4615 H         1 <0>         0.0808
     49 H11        -4.4753   -7.9196    1.6565 H         1 <0>         0.0807
     50 H12        -4.6472   -8.8537    3.1619 H         1 <0>         0.0875
     51 H13        -4.7889   -7.0797    3.1942 H         1 <0>         0.0892
     52 H14        -0.5022   -9.1422    2.4039 H         1 <0>         0.0926
     53 H15        -1.9429  -10.1550    2.6633 H         1 <0>         0.0880
     54 H16        -1.7709   -9.2208    1.1579 H         1 <0>         0.0809
     55 H17        -3.8989   -6.6872    5.3380 H         1 <0>         0.0514
     56 H18        -2.6302   -6.6087    6.5839 H         1 <0>         0.0530
     57 H19        -2.4583   -5.6745    5.0786 H         1 <0>         0.0588
     58 H20        -2.1178   -9.9387    5.0009 H         1 <0>         0.0544
     59 H21        -2.4314   -9.0988    6.5386 H         1 <0>         0.0561
     60 H22        -3.7001   -9.1774    5.2926 H         1 <0>         0.0538
     61 H23        -0.2373   -6.7432    4.6691 H         1 <0>         0.0589
     62 H24        -0.4092   -7.6773    6.1745 H         1 <0>         0.0533
     63 H25        -0.0957   -8.5172    4.6368 H         1 <0>         0.0528
     64 H26        -1.4317   -7.8963   -2.3588 H         1 <0>         0.1718
     65 H27        -4.0857   -5.9266   -0.6534 H         1 <0>         0.3717
     66 H28        -1.6624   -6.5930   -3.5777 H         1 <0>         0.1731
     67 H29        -3.7210   -0.9097   -1.3953 H         1 <0>         0.1078
     68 H30        -5.3150   -0.5313   -2.0912 H         1 <0>         0.0907
     69 H31        -5.2041   -1.3811   -0.5311 H         1 <0>         0.0904
     70 H32        -3.9634   -3.6457   -4.6037 H         1 <0>         0.0917
     71 H33        -4.5323   -1.9601   -4.6606 H         1 <0>         0.0907
     72 H34        -2.9383   -2.3384   -3.9646 H         1 <0>         0.0937
     73 H35        -7.1412   -2.7072   -0.7058 H         1 <0>         0.0529
     74 H36        -8.1663   -4.0145   -1.3450 H         1 <0>         0.0560
     75 H37        -6.5724   -4.3928   -0.6490 H         1 <0>         0.0577
     76 H38        -6.8390   -2.3504   -4.3989 H         1 <0>         0.0541
     77 H39        -8.3220   -2.8217   -3.5348 H         1 <0>         0.0582
     78 H40        -7.2969   -1.5144   -2.8957 H         1 <0>         0.0546
     79 H41        -5.9295   -5.5662   -2.7591 H         1 <0>         0.0613
     80 H42        -7.5235   -5.1878   -3.4550 H         1 <0>         0.0553
     81 H43        -6.0405   -4.7165   -4.3192 H         1 <0>         0.0512
@<TRIPOS>BOND
     1    1    2 1
     2    1   40 1
     3    1   41 1
     4    1   42 1
     5    2    9 1
     6    2    3 2
     7    3    4 1
     8    3   43 1
     9    4    5 am
    10    4   11 1
    11    5    6 2
    12    5    7 am
    13    7    8 1
    14    7    9 am
    15    9   10 2
    16   11   15 1
    17   11   12 1
    18   11   44 1
    19   12   32 1
    20   12   45 1
    21   12   13 1
    22   13   25 1
    23   13   30 1
    24   13   14 1
    25   14   15 1
    26   14   16 1
    27   14   46 1
    28   16   17 1
    29   16   47 1
    30   16   48 1
    31   17   18 1
    32   18   19 1
    33   18   20 1
    34   18   21 1
    35   19   49 1
    36   19   50 1
    37   19   51 1
    38   20   52 1
    39   20   53 1
    40   20   54 1
    41   21   22 1
    42   21   23 1
    43   21   24 1
    44   22   55 1
    45   22   56 1
    46   22   57 1
    47   23   58 1
    48   23   59 1
    49   23   60 1
    50   24   61 1
    51   24   62 1
    52   24   63 1
    53   25   26 1
    54   25   31 2
    55   26   27 1
    56   26   64 1
    57   26   66 1
    58   27   28 2
    59   27   29 2
    60   27   30 1
    61   31   65 1
    62   32   33 1
    63   33   34 1
    64   33   35 1
    65   33   36 1
    66   34   67 1
    67   34   68 1
    68   34   69 1
    69   35   70 1
    70   35   71 1
    71   35   72 1
    72   36   37 1
    73   36   38 1
    74   36   39 1
    75   37   73 1
    76   37   74 1
    77   37   75 1
    78   38   76 1
    79   38   77 1
    80   38   78 1
    81   39   79 1
    82   39   80 1
    83   39   81 1
@<TRIPOS>MOLECULE
CHEMBL146770
   34    35     0     0     0
SMALL
USER_CHARGES

@<TRIPOS>ATOM
      1 C1         -0.0158    1.3163    0.0093 C.2       1 <0>         0.0515
      2 C2          1.1829    1.9487    0.0012 C.2       1 <0>        -0.2302
      3 S1          2.2958    0.5527   -0.0169 S.3       1 <0>         0.0976
      4 C3          1.1376   -0.6684   -0.0124 C.2       1 <0>         0.2548
      5 N1          0.0021   -0.0041    0.0020 N.2       1 <0>        -0.4553
      6 N2          1.3331   -2.0439   -0.0220 N.pl3     1 <0>        -0.5840
      7 C4          0.2724   -2.8754   -0.0163 C.2       1 <0>         0.5253
      8 S2         -1.3159   -2.2366    0.0029 S.2       1 <0>        -0.5087
      9 N3          0.4620   -4.2097   -0.0257 N.pl3     1 <0>        -0.6794
     10 C5         -0.6909   -5.1135   -0.0194 C.3       1 <0>         0.1292
     11 C6         -0.2025   -6.5634   -0.0324 C.3       1 <0>        -0.0999
     12 C7         -1.3885   -7.4931   -0.0260 C.2       1 <0>        -0.1225
     13 C8         -1.8126   -7.9436   -1.1629 C.2       1 <0>        -0.1407
     14 C9         -2.9860   -8.8664   -1.3167 C.3       1 <0>        -0.0928
     15 C10        -3.3231   -9.5188    0.0258 C.3       1 <0>        -0.1220
     16 C11        -3.4050   -8.4194    1.0924 C.3       1 <0>        -0.1214
     17 C12        -2.0006   -7.8437    1.2986 C.3       1 <0>        -0.0836
     18 H1         -0.9443    1.8676    0.0255 H         1 <0>         0.1776
     19 H2          1.4040    3.0059    0.0048 H         1 <0>         0.1998
     20 H3          2.2330   -2.4058   -0.0329 H         1 <0>         0.4161
     21 H4          1.3619   -4.5716   -0.0365 H         1 <0>         0.3965
     22 H5         -1.2851   -4.9382    0.8774 H         1 <0>         0.0909
     23 H6         -1.3026   -4.9282   -0.9024 H         1 <0>         0.0905
     24 H7          0.3917   -6.7386   -0.9292 H         1 <0>         0.0748
     25 H8          0.4092   -6.7486    0.8506 H         1 <0>         0.0764
     26 H9         -1.2898   -7.6360   -2.0564 H         1 <0>         0.1033
     27 H10        -3.8477   -8.2996   -1.6694 H         1 <0>         0.0761
     28 H11        -2.7435   -9.6412   -2.0441 H         1 <0>         0.0717
     29 H12        -4.2823  -10.0314   -0.0465 H         1 <0>         0.0657
     30 H13        -2.5427  -10.2312    0.2932 H         1 <0>         0.0635
     31 H14        -4.0815   -7.6333    0.7571 H         1 <0>         0.0672
     32 H15        -3.7670   -8.8437    2.0289 H         1 <0>         0.0662
     33 H16        -1.3746   -8.5803    1.8022 H         1 <0>         0.0729
     34 H17        -2.0667   -6.9470    1.9147 H         1 <0>         0.0723
@<TRIPOS>BOND
     1    1    5 1
     2    1    2 2
     3    1   18 1
     4    2    3 1
     5    2   19 1
     6    3    4 1
     7    4    5 2
     8    4    6 1
     9    6    7 1
    10    6   20 1
    11    7    8 2
    12    7    9 1
    13    9   10 1
    14    9   21 1
    15   10   11 1
    16   10   22 1
    17   10   23 1
    18   11   12 1
    19   11   24 1
    20   11   25 1
    21   12   17 1
    22   12   13 2
    23   13   14 1
    24   13   26 1
    25   14   15 1
    26   14   27 1
    27   14   28 1
    28   15   16 1
    29   15   29 1
    30   15   30 1
    31   16   17 1
    32   16   31 1
    33   16   32 1
    34   17   33 1
    35   17   34 1
@<TRIPOS>MOLECULE
CHEMBL145237
   40    43     0     0     0
SMALL
USER_CHARGES

@<TRIPOS>ATOM
      1 C1         -0.0187    1.5258    0.0104 C.3       1 <0>        -0.1714
      2 C2          0.0021   -0.0041    0.0020 C.3       1 <0>         0.1386
      3 N1         -1.3723   -0.5112    0.0124 N.pl3     1 <0>        -0.5789
      4 C3         -2.0200   -0.7546    1.2117 C.ar      1 <0>         0.4169
      5 C4         -3.2161   -0.0803    1.5075 C.ar      1 <0>        -0.2006
      6 C5         -3.8971   -0.4030    2.6866 C.ar      1 <0>        -0.0014
      7 C6         -3.3375   -1.3439    3.5340 C.ar      1 <0>        -0.1924
      8 C7         -2.1325   -1.9320    3.1961 C.ar      1 <0>         0.1497
      9 N2         -1.5177   -1.6302    2.0690 N.ar      1 <0>        -0.5008
     10 C8         -3.7300    0.9731    0.6280 C.2       1 <0>         0.5760
     11 O1         -4.2300    1.9448    1.1610 O.2       1 <0>        -0.5271
     12 N3         -3.6985    0.9604   -0.6965 N.am      1 <0>        -0.5366
     13 C9         -3.2060   -0.0593   -1.5095 C.ar      1 <0>         0.0779
     14 C10        -2.0455   -0.7488   -1.1851 C.ar      1 <0>         0.3716
     15 N4         -1.5636   -1.6646   -2.0146 N.ar      1 <0>        -0.4820
     16 C11        -2.1807   -1.9786   -3.1465 C.ar      1 <0>         0.2337
     17 C12        -3.3688   -1.3500   -3.5052 C.ar      1 <0>        -0.1515
     18 C13        -3.8882   -0.3836   -2.6792 C.ar      1 <0>        -0.0726
     19 C14        -1.5975   -3.0101   -4.0389 C.2       1 <0>        -0.2108
     20 C15        -0.5005   -3.7787   -3.7750 C.2       1 <0>         0.1155
     21 N5         -0.3033   -4.5856   -4.8363 N.pl3     1 <0>        -0.4710
     22 H1          0.4059   -5.2409   -4.9282 H         1 <0>         0.4447
     23 N6         -1.2984   -4.3152   -5.7832 N.2       1 <0>        -0.2907
     24 C16        -2.0784   -3.3795   -5.3108 C.2       1 <0>         0.0784
     25 C17        -4.2377    2.1403   -1.3772 C.3       1 <0>         0.0589
     26 H2          1.0039    1.9031    0.0027 H         1 <0>         0.0716
     27 H3         -0.5459    1.8868   -0.8726 H         1 <0>         0.0545
     28 H4         -0.5289    1.8773    0.9072 H         1 <0>         0.0539
     29 H5          0.5123   -0.3556   -0.8948 H         1 <0>         0.0829
     30 H6          0.5293   -0.3651    0.8851 H         1 <0>         0.0829
     31 H7         -4.8365    0.0710    2.9299 H         1 <0>         0.1477
     32 H8         -3.8379   -1.6161    4.4516 H         1 <0>         0.1484
     33 H9         -1.6868   -2.6514    3.8671 H         1 <0>         0.1673
     34 H10        -3.8773   -1.6213   -4.4185 H         1 <0>         0.1467
     35 H11        -4.8073    0.1209   -2.9382 H         1 <0>         0.1472
     36 H12         0.1004   -3.7460   -2.8782 H         1 <0>         0.1873
     37 H13        -2.9397   -2.9602   -5.8094 H         1 <0>         0.1901
     38 H14        -4.5884    2.8587   -0.6363 H         1 <0>         0.1052
     39 H15        -3.4571    2.5972   -1.9854 H         1 <0>         0.0696
     40 H16        -5.0689    1.8427   -2.0165 H         1 <0>         0.0706
@<TRIPOS>BOND
     1    1    2 1
     2    1   26 1
     3    1   27 1
     4    1   28 1
     5    2    3 1
     6    2   29 1
     7    2   30 1
     8    3   14 1
     9    3    4 1
    10    4    9 ar
    11    4    5 ar
    12    5    6 ar
    13    5   10 1
    14    6    7 ar
    15    6   31 1
    16    7    8 ar
    17    7   32 1
    18    8    9 ar
    19    8   33 1
    20   10   11 2
    21   10   12 am
    22   12   13 1
    23   12   25 1
    24   13   18 ar
    25   13   14 ar
    26   14   15 ar
    27   15   16 ar
    28   16   17 ar
    29   16   19 1
    30   17   18 ar
    31   17   34 1
    32   18   35 1
    33   19   24 1
    34   19   20 2
    35   20   21 1
    36   20   36 1
    37   21   22 1
    38   21   23 1
    39   23   24 2
    40   24   37 1
    41   25   38 1
    42   25   39 1
    43   25   40 1
@<TRIPOS>MOLECULE
CHEMBL155483
   38    40     0     0     0
SMALL
USER_CHARGES

@<TRIPOS>ATOM
      1 C1         -0.0167    1.3780    0.0096 C.ar      1 <0>        -0.0922
      2 C2          1.1705    2.0859    0.0021 C.ar      1 <0>        -0.1072
      3 C3          2.3784    1.4113   -0.0135 C.ar      1 <0>        -0.0129
      4 C4          2.3978    0.0281   -0.0210 C.ar      1 <0>        -0.0684
      5 C5          1.2094   -0.6798   -0.0130 C.ar      1 <0>        -0.0196
      6 C6          0.0021   -0.0041    0.0020 C.ar      1 <0>        -0.1052
      7 Cl1         1.2327   -2.4156   -0.0231 Cl        1 <0>        -0.0479
      8 C7          3.7131   -0.7072   -0.0385 C.3       1 <0>        -0.0419
      9 C8          4.1662   -0.9599    1.3764 C.2       1 <0>         0.2003
     10 C9          3.8804   -2.1500    1.9810 C.2       1 <0>        -0.2852
     11 C10         4.3133   -2.3630    3.3014 C.2       1 <0>         0.5309
     12 N1          4.9978   -1.3813    3.9265 N.am      1 <0>        -0.6161
     13 C11         5.2539   -0.2142    3.2731 C.2       1 <0>         0.3741
     14 N2          4.8486   -0.0247    2.0321 N.2       1 <0>        -0.5260
     15 S1          6.1473    1.0616    4.0969 S.3       1 <0>        -0.0141
     16 C12         6.2461    2.3921    2.8678 C.3       1 <0>        -0.0633
     17 C13         7.1495    1.9612    1.6940 C.3       1 <0>        -0.1145
     18 C14         7.9063    3.2546    1.3024 C.3       1 <0>        -0.1237
     19 C15         8.1774    3.9207    2.6742 C.3       1 <0>        -0.1226
     20 C16         6.8996    3.6380    3.4910 C.3       1 <0>        -0.1056
     21 O1          4.0747   -3.4149    3.8719 O.2       1 <0>        -0.5329
     22 Cl2         3.8693    2.3005   -0.0241 Cl        1 <0>        -0.0407
     23 H1         -0.9592    1.9050    0.0259 H         1 <0>         0.1439
     24 H2          1.1552    3.1657    0.0080 H         1 <0>         0.1416
     25 H3         -0.9258   -0.5566    0.0082 H         1 <0>         0.1424
     26 H4          3.5906   -1.6586   -0.5562 H         1 <0>         0.1056
     27 H5          4.4592   -0.1049   -0.5568 H         1 <0>         0.1088
     28 H6          3.3304   -2.9153    1.4536 H         1 <0>         0.1564
     29 H7          5.2489    2.6370    2.5020 H         1 <0>         0.1111
     30 H8          7.8510    1.1912    2.0152 H         1 <0>         0.0753
     31 H9          6.5462    1.6046    0.8591 H         1 <0>         0.0842
     32 H10         8.8422    3.0165    0.7969 H         1 <0>         0.0729
     33 H11         7.2813    3.8942    0.6792 H         1 <0>         0.0688
     34 H12         9.0448    3.4671    3.1537 H         1 <0>         0.0712
     35 H13         8.3241    4.9941    2.5547 H         1 <0>         0.0729
     36 H14         6.2199    4.4877    3.4270 H         1 <0>         0.0845
     37 H15         7.1574    3.4432    4.5320 H         1 <0>         0.0747
     38 H16         5.3057   -1.5067    4.8378 H         1 <0>         0.4203
@<TRIPOS>BOND
     1    1    6 ar
     2    1    2 ar
     3    1   23 1
     4    2    3 ar
     5    2   24 1
     6    3    4 ar
     7    3   22 1
     8    4    5 ar
     9    4    8 1
    10    5    6 ar
    11    5    7 1
    12    6   25 1
    13    8   26 1
    14    8   27 1
    15    8    9 1
    16    9   10 2
    17    9   14 1
    18   10   11 1
    19   10   28 1
    20   11   12 am
    21   11   21 2
    22   12   13 1
    23   12   38 1
    24   13   15 1
    25   13   14 2
    26   15   16 1
    27   16   20 1
    28   16   17 1
    29   16   29 1
    30   17   18 1
    31   17   30 1
    32   17   31 1
    33   18   19 1
    34   18   32 1
    35   18   33 1
    36   19   20 1
    37   19   34 1
    38   19   35 1
    39   20   36 1
    40   20   37 1
@<TRIPOS>MOLECULE
CHEMBL155483__1
   38    40     0     0     0
SMALL
USER_CHARGES

@<TRIPOS>ATOM
      1 C1         -0.0167    1.3780    0.0096 C.ar      1 <0>        -0.0877
      2 C2          1.1705    2.0859    0.0021 C.ar      1 <0>        -0.0990
      3 C3          2.3784    1.4113   -0.0135 C.ar      1 <0>        -0.0233
      4 C4          2.3978    0.0281   -0.0210 C.ar      1 <0>        -0.0776
      5 C5          1.2094   -0.6798   -0.0130 C.ar      1 <0>        -0.0151
      6 C6          0.0021   -0.0041    0.0020 C.ar      1 <0>        -0.0985
      7 Cl1         1.2327   -2.4156   -0.0231 Cl        1 <0>        -0.0407
      8 C7          3.7131   -0.7072   -0.0385 C.3       1 <0>        -0.0566
      9 C8          4.1662   -0.9599    1.3764 C.2       1 <0>         0.1700
     10 C9          3.8881   -2.1339    1.9824 C.2       1 <0>        -0.2658
     11 C10         4.3294   -2.3401    3.3148 C.2       1 <0>         0.5141
     12 N1          5.0097   -1.3719    3.9432 N.2       1 <0>        -0.5789
     13 C11         5.2724   -0.2316    3.3360 C.2       1 <0>         0.3989
     14 N2          4.8671   -0.0062    2.0570 N.pl3     1 <0>        -0.5965
     15 S1          6.1690    1.0196    4.1935 S.3       1 <0>        -0.0235
     16 C12         6.4951    0.2884    5.8212 C.3       1 <0>        -0.0590
     17 C13         5.1751    0.1309    6.6038 C.3       1 <0>        -0.1151
     18 C14         5.5617    0.4511    8.0691 C.3       1 <0>        -0.1236
     19 C15         6.5807    1.6065    7.9090 C.3       1 <0>        -0.1228
     20 C16         7.3889    1.2266    6.6511 C.3       1 <0>        -0.1045
     21 O1          4.0902   -3.3934    3.8855 O.2       1 <0>        -0.5074
     22 Cl2         3.8693    2.3005   -0.0241 Cl        1 <0>        -0.0554
     23 H1         -0.9592    1.9050    0.0259 H         1 <0>         0.1482
     24 H2          1.1552    3.1657    0.0080 H         1 <0>         0.1460
     25 H3         -0.9258   -0.5566    0.0082 H         1 <0>         0.1465
     26 H4          3.5906   -1.6586   -0.5562 H         1 <0>         0.1231
     27 H5          4.4592   -0.1049   -0.5568 H         1 <0>         0.1072
     28 H6          3.3382   -2.9036    1.4612 H         1 <0>         0.1567
     29 H7          6.9788   -0.6814    5.7045 H         1 <0>         0.1119
     30 H8          4.4303    0.8397    6.2421 H         1 <0>         0.0732
     31 H9          4.8026   -0.8903    6.5220 H         1 <0>         0.0870
     32 H10         4.6904    0.7802    8.6354 H         1 <0>         0.0725
     33 H11         6.0282   -0.4125    8.5431 H         1 <0>         0.0720
     34 H12         6.0629    2.5537    7.7581 H         1 <0>         0.0703
     35 H13         7.2341    1.6624    8.7797 H         1 <0>         0.0732
     36 H14         8.3059    0.7119    6.9378 H         1 <0>         0.0859
     37 H15         7.6266    2.1214    6.0757 H         1 <0>         0.0742
     38 H16         5.0740    0.8384    1.6274 H         1 <0>         0.4198
@<TRIPOS>BOND
     1    1    6 ar
     2    1    2 ar
     3    1   23 1
     4    2    3 ar
     5    2   24 1
     6    3    4 ar
     7    3   22 1
     8    4    5 ar
     9    4    8 1
    10    5    6 ar
    11    5    7 1
    12    6   25 1
    13    8   26 1
    14    8   27 1
    15    8    9 1
    16    9   10 2
    17    9   14 1
    18   10   11 1
    19   10   28 1
    20   11   12 1
    21   11   21 2
    22   12   13 2
    23   13   15 1
    24   13   14 1
    25   14   38 1
    26   15   16 1
    27   16   20 1
    28   16   17 1
    29   16   29 1
    30   17   18 1
    31   17   30 1
    32   17   31 1
    33   18   19 1
    34   18   32 1
    35   18   33 1
    36   19   20 1
    37   19   34 1
    38   19   35 1
    39   20   36 1
    40   20   37 1
@<TRIPOS>MOLECULE
CHEMBL321980
   47    49     0     0     0
SMALL
USER_CHARGES

@<TRIPOS>ATOM
      1 C1         -0.0187    1.5258    0.0104 C.3       1 <0>        -0.1434
      2 C2          0.0021   -0.0041    0.0020 C.3       1 <0>        -0.0130
      3 C3          0.7421   -0.5109    1.2415 C.3       1 <0>        -0.1418
      4 C4         -1.4117   -0.5257    0.0127 C.ar      1 <0>        -0.2803
      5 C5         -1.8772   -1.3269   -1.0134 C.ar      1 <0>         0.1801
      6 N1         -3.1247   -1.7691   -0.9747 N.ar      1 <0>        -0.5762
      7 C6         -3.9274   -1.4536    0.0319 C.ar      1 <0>         0.3217
      8 N2         -3.5180   -0.6880    1.0332 N.ar      1 <0>        -0.6184
      9 C7         -2.2777   -0.2159    1.0604 C.ar      1 <0>         0.4535
     10 O1         -1.8608    0.5613    2.0893 O.3       1 <0>        -0.6881
     11 S1         -5.5793   -2.0666    0.0385 S.3       1 <0>        -0.0125
     12 C8         -6.2897   -1.3972    1.5675 C.3       1 <0>        -0.1653
     13 C9         -7.7205   -1.8520    1.6978 C.2       1 <0>         0.3729
     14 O2         -8.2104   -2.5551    0.8470 O.2       1 <0>        -0.4477
     15 C10        -8.5399   -1.4293    2.8899 C.3       1 <0>        -0.1937
     16 C11        -0.9748   -1.6924   -2.1637 C.3       1 <0>        -0.0305
     17 C12        -0.2421   -2.9692   -1.8413 C.ar      1 <0>        -0.0445
     18 C13         1.0045   -2.9238   -1.2963 C.ar      1 <0>        -0.1201
     19 C14         1.6973   -4.0936   -0.9915 C.ar      1 <0>        -0.1094
     20 C15         1.1479   -5.3159   -1.2303 C.ar      1 <0>        -0.1211
     21 C16        -0.1371   -5.4028   -1.7920 C.ar      1 <0>        -0.0504
     22 C17        -0.8444   -4.2127   -2.0962 C.ar      1 <0>        -0.0436
     23 C18        -2.1321   -4.2998   -2.6527 C.ar      1 <0>        -0.0760
     24 C19        -2.6836   -5.5218   -2.8858 C.ar      1 <0>        -0.1306
     25 C20        -1.9907   -6.6921   -2.5805 C.ar      1 <0>        -0.1129
     26 C21        -0.7369   -6.6467   -2.0533 C.ar      1 <0>        -0.1215
     27 H1          1.0039    1.9031    0.0027 H         1 <0>         0.0368
     28 H2         -0.5459    1.8868   -0.8726 H         1 <0>         0.0364
     29 H3         -0.5289    1.8773    0.9072 H         1 <0>         0.0790
     30 H4          0.5123   -0.3556   -0.8948 H         1 <0>         0.0549
     31 H5          1.7647   -0.1336    1.2338 H         1 <0>         0.0361
     32 H6          0.2319   -0.1594    2.1383 H         1 <0>         0.0782
     33 H7          0.7568   -1.6008    1.2356 H         1 <0>         0.0387
     34 H8         -5.7154   -1.7551    2.4221 H         1 <0>         0.1228
     35 H9         -6.2559   -0.3082    1.5375 H         1 <0>         0.1231
     36 H10        -7.9334   -0.8029    3.5440 H         1 <0>         0.0852
     37 H11        -9.4097   -0.8662    2.5516 H         1 <0>         0.0936
     38 H12        -8.8692   -2.3132    3.4362 H         1 <0>         0.0935
     39 H13        -1.5729   -1.8341   -3.0639 H         1 <0>         0.0853
     40 H14        -0.2540   -0.8916   -2.3287 H         1 <0>         0.0879
     41 H15         1.4635   -1.9666   -1.0976 H         1 <0>         0.1251
     42 H16         2.6852   -4.0296   -0.5597 H         1 <0>         0.1188
     43 H17         1.6969   -6.2143   -0.9896 H         1 <0>         0.1205
     44 H18        -2.6812   -3.4015   -2.8936 H         1 <0>         0.1409
     45 H19        -3.6733   -5.5859   -3.3134 H         1 <0>         0.1195
     46 H20        -2.4516   -7.6492   -2.7752 H         1 <0>         0.1164
     47 H21        -0.2116   -7.5618   -1.8226 H         1 <0>         0.1199
@<TRIPOS>BOND
     1    1    2 1
     2    1   27 1
     3    1   28 1
     4    1   29 1
     5    2    3 1
     6    2   30 1
     7    2    4 1
     8    3   31 1
     9    3   32 1
    10    3   33 1
    11    4    9 ar
    12    4    5 ar
    13    5   16 1
    14    5    6 ar
    15    6    7 ar
    16    7   11 1
    17    7    8 ar
    18    8    9 ar
    19    9   10 1
    20   11   12 1
    21   12   13 1
    22   12   34 1
    23   12   35 1
    24   13   14 2
    25   13   15 1
    26   15   36 1
    27   15   37 1
    28   15   38 1
    29   16   17 1
    30   16   39 1
    31   16   40 1
    32   17   22 ar
    33   17   18 ar
    34   18   19 ar
    35   18   41 1
    36   19   20 ar
    37   19   42 1
    38   20   21 ar
    39   20   43 1
    40   21   26 ar
    41   21   22 ar
    42   22   23 ar
    43   23   24 ar
    44   23   44 1
    45   24   25 ar
    46   24   45 1
    47   25   26 ar
    48   25   46 1
    49   26   47 1
@<TRIPOS>MOLECULE
CHEMBL321980__1
   48    50     0     0     0
SMALL
USER_CHARGES

@<TRIPOS>ATOM
      1 C1         -0.4913    1.1291    0.0702 C.3       1 <0>        -0.1489
      2 C2         -0.1781   -0.3672    0.0068 C.3       1 <0>        -0.0301
      3 C3         -1.4856   -1.1608   -0.0301 C.3       1 <0>        -0.1499
      4 C4          0.6228   -0.6605   -1.2356 C.2       1 <0>        -0.2265
      5 C5          1.8690   -1.1717   -1.1434 C.2       1 <0>         0.1646
      6 N1          2.5722   -1.4278   -2.2853 N.pl3     1 <0>        -0.5925
      7 C6          2.0241   -1.1706   -3.5036 C.2       1 <0>         0.3861
      8 N2          0.8087   -0.6716   -3.6123 N.2       1 <0>        -0.5891
      9 C7          0.0772   -0.4095   -2.5208 C.2       1 <0>         0.5218
     10 O1         -1.0503    0.0477   -2.6315 O.2       1 <0>        -0.5001
     11 S1          2.9545   -1.5097   -4.9609 S.3       1 <0>         0.0345
     12 C8          1.8473   -1.0209   -6.3122 C.3       1 <0>        -0.1645
     13 C9          2.5302   -1.2628   -7.6336 C.2       1 <0>         0.3743
     14 O2          3.6484   -1.7180   -7.6610 O.2       1 <0>        -0.4412
     15 C10         1.8177   -0.9367   -8.9208 C.3       1 <0>        -0.1944
     16 C11         2.4776   -1.4560    0.2056 C.3       1 <0>        -0.0498
     17 C12         2.1567   -2.8709    0.6133 C.ar      1 <0>        -0.0844
     18 C13         1.0779   -3.1275    1.4027 C.ar      1 <0>        -0.0941
     19 C14         0.7655   -4.4290    1.7899 C.ar      1 <0>        -0.1149
     20 C15         1.5303   -5.4817    1.3902 C.ar      1 <0>        -0.0972
     21 C16         2.6520   -5.2561    0.5747 C.ar      1 <0>        -0.0526
     22 C17         2.9662   -3.9327    0.1757 C.ar      1 <0>        -0.0382
     23 C18         4.0849   -3.7078   -0.6449 C.ar      1 <0>        -0.1273
     24 C19         4.8459   -4.7609   -1.0492 C.ar      1 <0>        -0.1006
     25 C20         4.5332   -6.0629   -0.6623 C.ar      1 <0>        -0.1187
     26 C21         3.4656   -6.3175    0.1426 C.ar      1 <0>        -0.0958
     27 H1          0.4402    1.6945    0.0964 H         1 <0>         0.0487
     28 H2         -1.0667    1.4174   -0.8096 H         1 <0>         0.0722
     29 H3         -1.0706    1.3413    0.9688 H         1 <0>         0.0594
     30 H4          0.3973   -0.6555    0.8865 H         1 <0>         0.0774
     31 H5         -2.0610   -0.8725   -0.9099 H         1 <0>         0.0752
     32 H6         -1.2625   -2.2268   -0.0753 H         1 <0>         0.0496
     33 H7         -2.0649   -0.9486    0.8685 H         1 <0>         0.0584
     34 H8          3.4682   -1.7951   -2.2276 H         1 <0>         0.4203
     35 H9          0.9318   -1.6104   -6.2630 H         1 <0>         0.1377
     36 H10         1.6036    0.0372   -6.2175 H         1 <0>         0.1382
     37 H11         2.0338    0.0932   -9.2049 H         1 <0>         0.1044
     38 H12         2.1606   -1.6099   -9.7066 H         1 <0>         0.0948
     39 H13         0.7433   -1.0576   -8.7821 H         1 <0>         0.0922
     40 H14         3.5589   -1.3302    0.1502 H         1 <0>         0.0968
     41 H15         2.0686   -0.7641    0.9418 H         1 <0>         0.1180
     42 H16         0.4549   -2.3099    1.7343 H         1 <0>         0.1298
     43 H17        -0.0962   -4.6051    2.4167 H         1 <0>         0.1282
     44 H18         1.2765   -6.4851    1.6986 H         1 <0>         0.1301
     45 H19         4.3389   -2.7044   -0.9532 H         1 <0>         0.1142
     46 H20         5.7050   -4.5853   -1.6797 H         1 <0>         0.1271
     47 H21         5.1536   -6.8810   -0.9975 H         1 <0>         0.1268
     48 H22         3.2359   -7.3314    0.4350 H         1 <0>         0.1300
@<TRIPOS>BOND
     1    1    2 1
     2    1   27 1
     3    1   28 1
     4    1   29 1
     5    2    3 1
     6    2   30 1
     7    2    4 1
     8    3   31 1
     9    3   32 1
    10    3   33 1
    11    4    9 1
    12    4    5 2
    13    5   16 1
    14    5    6 1
    15    6    7 1
    16    6   34 1
    17    7   11 1
    18    7    8 2
    19    8    9 1
    20    9   10 2
    21   11   12 1
    22   12   13 1
    23   12   35 1
    24   12   36 1
    25   13   14 2
    26   13   15 1
    27   15   37 1
    28   15   38 1
    29   15   39 1
    30   16   17 1
    31   16   40 1
    32   16   41 1
    33   17   22 ar
    34   17   18 ar
    35   18   19 ar
    36   18   42 1
    37   19   20 ar
    38   19   43 1
    39   20   21 ar
    40   20   44 1
    41   21   26 ar
    42   21   22 ar
    43   22   23 ar
    44   23   24 ar
    45   23   45 1
    46   24   25 ar
    47   24   46 1
    48   25   26 ar
    49   25   47 1
    50   26   48 1
@<TRIPOS>MOLECULE
CHEMBL321980__2
   48    50     0     0     0
SMALL
USER_CHARGES

@<TRIPOS>ATOM
      1 C1          0.2337    1.2089    0.3193 C.3       1 <0>        -0.1493
      2 C2          0.0922   -0.3032    0.1335 C.3       1 <0>        -0.0296
      3 C3          0.7513   -1.0255    1.3103 C.3       1 <0>        -0.1515
      4 C4         -1.3689   -0.6675    0.0751 C.2       1 <0>        -0.2396
      5 C5         -1.8989   -1.2311   -1.0496 C.2       1 <0>         0.1935
      6 N1         -3.1899   -1.5500   -1.0921 N.2       1 <0>        -0.5350
      7 C6         -3.9845   -1.3333   -0.0616 C.2       1 <0>         0.3573
      8 N2         -3.5116   -0.7735    1.0863 N.am      1 <0>        -0.6146
      9 C7         -2.2072   -0.4379    1.1802 C.2       1 <0>         0.5359
     10 O1         -1.7653    0.0595    2.2029 O.2       1 <0>        -0.5216
     11 S1         -5.6866   -1.7751   -0.1725 S.3       1 <0>         0.0427
     12 C8         -5.8528   -2.4662   -1.8415 C.3       1 <0>        -0.1699
     13 C9         -7.2809   -2.8898   -2.0698 C.2       1 <0>         0.3722
     14 O2         -8.1019   -2.7409   -1.1968 O.2       1 <0>        -0.4384
     15 C10        -7.6845   -3.4993   -3.3877 C.3       1 <0>        -0.1947
     16 C11        -1.0200   -1.4922   -2.2457 C.3       1 <0>        -0.0381
     17 C12        -0.4670   -2.8918   -2.1667 C.ar      1 <0>        -0.0689
     18 C13         0.7597   -3.1129   -1.6196 C.ar      1 <0>        -0.1071
     19 C14         1.2875   -4.3998   -1.5380 C.ar      1 <0>        -0.1134
     20 C15         0.5919   -5.4734   -2.0035 C.ar      1 <0>        -0.1049
     21 C16        -0.6777   -5.2845   -2.5749 C.ar      1 <0>        -0.0510
     22 C17        -1.2173   -3.9760   -2.6522 C.ar      1 <0>        -0.0409
     23 C18        -2.4898   -3.7878   -3.2186 C.ar      1 <0>        -0.0974
     24 C19        -3.1876   -4.8619   -3.6784 C.ar      1 <0>        -0.1228
     25 C20        -2.6598   -6.1493   -3.5965 C.ar      1 <0>        -0.1155
     26 C21        -1.4254   -6.3682   -3.0667 C.ar      1 <0>        -0.1082
     27 H1          1.2906    1.4724    0.3615 H         1 <0>         0.0594
     28 H2         -0.2358    1.7235   -0.5191 H         1 <0>         0.0498
     29 H3         -0.2527    1.5080    1.2477 H         1 <0>         0.0684
     30 H4          0.5786   -0.6023   -0.7949 H         1 <0>         0.0832
     31 H5          1.8081   -0.7620    1.3525 H         1 <0>         0.0581
     32 H6          0.2648   -0.7264    2.2387 H         1 <0>         0.0731
     33 H7          0.6504   -2.1027    1.1779 H         1 <0>         0.0502
     34 H8         -4.1089   -0.6201    1.8350 H         1 <0>         0.4208
     35 H9         -5.5759   -1.7107   -2.5768 H         1 <0>         0.1364
     36 H10        -5.1967   -3.3306   -1.9438 H         1 <0>         0.1368
     37 H11        -7.5629   -4.5814   -3.3400 H         1 <0>         0.1040
     38 H12        -8.7276   -3.2597   -3.5945 H         1 <0>         0.0950
     39 H13        -7.0551   -3.0976   -4.1817 H         1 <0>         0.0915
     40 H14        -1.6065   -1.3842   -3.1580 H         1 <0>         0.0988
     41 H15        -0.1978   -0.7766   -2.2555 H         1 <0>         0.1027
     42 H16         1.3326   -2.2783   -1.2435 H         1 <0>         0.1263
     43 H17         2.2632   -4.5478   -1.0993 H         1 <0>         0.1251
     44 H18         1.0138   -6.4651   -1.9343 H         1 <0>         0.1270
     45 H19        -2.9118   -2.7961   -3.2881 H         1 <0>         0.1349
     46 H20        -4.1652   -4.7145   -4.1131 H         1 <0>         0.1215
     47 H21        -3.2346   -6.9845   -3.9686 H         1 <0>         0.1220
     48 H22        -1.0289   -7.3712   -3.0105 H         1 <0>         0.1258
@<TRIPOS>BOND
     1    1    2 1
     2    1   27 1
     3    1   28 1
     4    1   29 1
     5    2    3 1
     6    2   30 1
     7    2    4 1
     8    3   31 1
     9    3   32 1
    10    3   33 1
    11    4    9 1
    12    4    5 2
    13    5   16 1
    14    5    6 1
    15    6    7 2
    16    7   11 1
    17    7    8 1
    18    8   34 1
    19    8    9 am
    20    9   10 2
    21   11   12 1
    22   12   13 1
    23   12   35 1
    24   12   36 1
    25   13   14 2
    26   13   15 1
    27   15   37 1
    28   15   38 1
    29   15   39 1
    30   16   17 1
    31   16   40 1
    32   16   41 1
    33   17   22 ar
    34   17   18 ar
    35   18   19 ar
    36   18   42 1
    37   19   20 ar
    38   19   43 1
    39   20   21 ar
    40   20   44 1
    41   21   26 ar
    42   21   22 ar
    43   22   23 ar
    44   23   24 ar
    45   23   45 1
    46   24   25 ar
    47   24   46 1
    48   25   26 ar
    49   25   47 1
    50   26   48 1
@<TRIPOS>MOLECULE
CHEMBL72472
   41    43     0     0     0
SMALL
USER_CHARGES

@<TRIPOS>ATOM
      1 C1         -0.0158    1.3119    0.0093 C.ar      1 <0>         0.3506
      2 N1          1.0888    2.0360    0.0026 N.ar      1 <0>        -0.6000
      3 C2          2.2875    1.4625   -0.0119 C.ar      1 <0>         0.5039
      4 C3          2.3582    0.0588   -0.0202 C.ar      1 <0>        -0.1075
      5 C4          1.1547   -0.6659   -0.0126 C.ar      1 <0>         0.2970
      6 N2          0.0021   -0.0041    0.0020 N.ar      1 <0>        -0.5497
      7 N3          1.5110   -1.9908   -0.0227 N.pl3     1 <0>        -0.4535
      8 C5          2.8729   -2.0476   -0.0358 C.2       1 <0>         0.2661
      9 N4          3.3680   -0.8441   -0.0343 N.2       1 <0>        -0.4700
     10 C6          0.5956   -3.1347   -0.0195 C.3       1 <0>         0.1020
     11 C7          0.8993   -4.0677    1.1740 C.3       1 <0>        -0.1600
     12 C8          1.2860   -5.4092    0.5128 C.3       1 <0>         0.0701
     13 O1          0.6563   -5.3753   -0.7865 O.3       1 <0>        -0.3337
     14 C9          0.8348   -4.0228   -1.2606 C.3       1 <0>         0.0356
     15 C10         0.7486   -6.5825    1.3346 C.3       1 <0>         0.1379
     16 O2          1.2143   -7.8109    0.7722 O.3       1 <0>        -0.7611
     17 P1          0.8415   -9.2526    1.3843 P.3       1 <0>         2.2905
     18 O3          1.2383   -9.2967    2.8768 O.2       1 <0>        -1.1059
     19 O4         -0.6787   -9.4923    1.2482 O.3       1 <0>        -1.1172
     20 O5          1.6394  -10.3985    0.5828 O.3       1 <0>        -1.0976
     21 P2          1.9506  -11.9523    0.8675 P.3       1 <0>         2.3454
     22 O6          2.2789  -12.1458    2.3648 O.2       1 <0>        -1.1162
     23 O7          0.7141  -12.8014    0.4975 O.3       1 <0>        -1.1401
     24 O8          3.2083  -12.4195   -0.0224 O.3       1 <0>        -1.1051
     25 P3          4.1883  -13.6965    0.0097 P.3       1 <0>         2.2214
     26 O9          4.5288  -14.0562    1.4960 O.2       1 <0>        -1.1975
     27 O10         3.4801  -14.9155   -0.6736 O.3       1 <0>        -1.2116
     28 O11         5.5096  -13.3603   -0.7621 O.3       1 <0>        -1.2133
     29 N5          3.4393    2.2295   -0.0193 N.pl3     1 <0>        -0.8237
     30 H1         -0.9693    1.8187    0.0257 H         1 <0>         0.2003
     31 H2          3.4551   -2.9572   -0.0459 H         1 <0>         0.2258
     32 H3         -0.4394   -2.7942    0.0128 H         1 <0>         0.1259
     33 H4          1.7304   -3.6780    1.7617 H         1 <0>         0.0902
     34 H5          0.0138   -4.1906    1.7977 H         1 <0>         0.1018
     35 H6          2.3685   -5.4825    0.4081 H         1 <0>         0.0859
     36 H7          0.1054   -3.7937   -2.0375 H         1 <0>         0.1001
     37 H8          1.8481   -3.8834   -1.6374 H         1 <0>         0.0649
     38 H9          1.1003   -6.4973    2.3628 H         1 <0>         0.0680
     39 H10        -0.3412   -6.5668    1.3209 H         1 <0>         0.0572
     40 H11         3.3774    3.1975   -0.0138 H         1 <0>         0.4050
     41 H12         4.3085    1.7992   -0.0299 H         1 <0>         0.4180
@<TRIPOS>BOND
     1    1    6 ar
     2    1    2 ar
     3    1   30 1
     4    2    3 ar
     5    3    4 ar
     6    3   29 1
     7    4    9 1
     8    4    5 ar
     9    5    6 ar
    10    5    7 1
    11    7    8 1
    12    7   10 1
    13    8    9 2
    14    8   31 1
    15   10   14 1
    16   10   11 1
    17   10   32 1
    18   11   12 1
    19   11   33 1
    20   11   34 1
    21   12   13 1
    22   12   15 1
    23   12   35 1
    24   13   14 1
    25   14   36 1
    26   14   37 1
    27   15   16 1
    28   15   38 1
    29   15   39 1
    30   16   17 1
    31   17   18 2
    32   17   19 1
    33   17   20 1
    34   20   21 1
    35   21   22 2
    36   21   23 1
    37   21   24 1
    38   24   25 1
    39   25   26 2
    40   25   27 1
    41   25   28 1
    42   29   40 1
    43   29   41 1
@<TRIPOS>MOLECULE
CHEMBL72472__1
   42    44     0     0     0
SMALL
USER_CHARGES

@<TRIPOS>ATOM
      1 C1         -0.0158    1.3119    0.0093 C.ar      1 <0>         0.3544
      2 N1          1.0888    2.0360    0.0026 N.ar      1 <0>        -0.5985
      3 C2          2.2875    1.4625   -0.0119 C.ar      1 <0>         0.5052
      4 C3          2.3582    0.0588   -0.0202 C.ar      1 <0>        -0.1088
      5 C4          1.1547   -0.6659   -0.0126 C.ar      1 <0>         0.2989
      6 N2          0.0021   -0.0041    0.0020 N.ar      1 <0>        -0.5516
      7 N3          1.5110   -1.9908   -0.0227 N.pl3     1 <0>        -0.4554
      8 C5          2.8729   -2.0476   -0.0358 C.2       1 <0>         0.2619
      9 N4          3.3680   -0.8441   -0.0343 N.2       1 <0>        -0.4681
     10 C6          0.5956   -3.1347   -0.0195 C.3       1 <0>         0.1030
     11 C7          0.8993   -4.0677    1.1740 C.3       1 <0>        -0.1608
     12 C8          1.2860   -5.4092    0.5128 C.3       1 <0>         0.0709
     13 O1          0.6563   -5.3753   -0.7865 O.3       1 <0>        -0.3361
     14 C9          0.8348   -4.0228   -1.2606 C.3       1 <0>         0.0360
     15 C10         0.7486   -6.5825    1.3346 C.3       1 <0>         0.1379
     16 O2          1.2143   -7.8109    0.7722 O.3       1 <0>        -0.7638
     17 P1          0.8415   -9.2526    1.3843 P.3       1 <0>         2.2882
     18 O3          1.2383   -9.2967    2.8768 O.2       1 <0>        -1.1011
     19 O4         -0.6787   -9.4923    1.2482 O.3       1 <0>        -1.1102
     20 O5          1.6394  -10.3985    0.5828 O.3       1 <0>        -1.0977
     21 P2          1.9506  -11.9523    0.8675 P.3       1 <0>         2.3465
     22 O6          2.2789  -12.1458    2.3648 O.2       1 <0>        -1.0969
     23 O7          0.7141  -12.8014    0.4975 O.3       1 <0>        -1.1166
     24 O8          3.2083  -12.4195   -0.0224 O.3       1 <0>        -1.0975
     25 P3          4.1883  -13.6965    0.0097 P.3       1 <0>         2.2694
     26 O9          4.5241  -14.0513    1.4754 O.2       1 <0>        -1.1072
     27 O10         3.4899  -14.8987   -0.6642 O.3       1 <0>        -1.1200
     28 O11         5.5461  -13.3510   -0.7835 O.3       1 <0>        -0.9092
     29 N5          3.4393    2.2295   -0.0193 N.pl3     1 <0>        -0.8226
     30 H1         -0.9693    1.8187    0.0257 H         1 <0>         0.2017
     31 H2          3.4551   -2.9572   -0.0459 H         1 <0>         0.2239
     32 H3         -0.4394   -2.7942    0.0128 H         1 <0>         0.1267
     33 H4          1.7304   -3.6780    1.7617 H         1 <0>         0.0909
     34 H5          0.0138   -4.1906    1.7977 H         1 <0>         0.1024
     35 H6          2.3685   -5.4825    0.4081 H         1 <0>         0.0840
     36 H7          0.1054   -3.7937   -2.0375 H         1 <0>         0.1015
     37 H8          1.8481   -3.8834   -1.6374 H         1 <0>         0.0650
     38 H9          1.1003   -6.4973    2.3628 H         1 <0>         0.0696
     39 H10        -0.3412   -6.5668    1.3209 H         1 <0>         0.0601
     40 H11         6.1847  -14.0768   -0.8047 H         1 <0>         0.3995
     41 H12         3.3774    3.1975   -0.0138 H         1 <0>         0.4063
     42 H13         4.3085    1.7992   -0.0299 H         1 <0>         0.4180
@<TRIPOS>BOND
     1    1    6 ar
     2    1    2 ar
     3    1   30 1
     4    2    3 ar
     5    3    4 ar
     6    3   29 1
     7    4    9 1
     8    4    5 ar
     9    5    6 ar
    10    5    7 1
    11    7    8 1
    12    7   10 1
    13    8    9 2
    14    8   31 1
    15   10   14 1
    16   10   11 1
    17   10   32 1
    18   11   12 1
    19   11   33 1
    20   11   34 1
    21   12   13 1
    22   12   15 1
    23   12   35 1
    24   13   14 1
    25   14   36 1
    26   14   37 1
    27   15   16 1
    28   15   38 1
    29   15   39 1
    30   16   17 1
    31   17   18 2
    32   17   19 1
    33   17   20 1
    34   20   21 1
    35   21   22 2
    36   21   23 1
    37   21   24 1
    38   24   25 1
    39   25   26 2
    40   25   27 1
    41   25   28 1
    42   28   40 1
    43   29   41 1
    44   29   42 1
@<TRIPOS>MOLECULE
CHEMBL72472__2
   41    43     0     0     0
SMALL
USER_CHARGES

@<TRIPOS>ATOM
      1 C1         -0.0158    1.3119    0.0093 C.ar      1 <0>         0.3506
      2 N1          1.0888    2.0360    0.0026 N.ar      1 <0>        -0.6000
      3 C2          2.2875    1.4625   -0.0119 C.ar      1 <0>         0.5039
      4 C3          2.3582    0.0588   -0.0202 C.ar      1 <0>        -0.1075
      5 C4          1.1547   -0.6659   -0.0126 C.ar      1 <0>         0.2970
      6 N2          0.0021   -0.0041    0.0020 N.ar      1 <0>        -0.5497
      7 N3          1.5110   -1.9908   -0.0227 N.pl3     1 <0>        -0.4535
      8 C5          2.8729   -2.0476   -0.0358 C.2       1 <0>         0.2661
      9 N4          3.3680   -0.8441   -0.0343 N.2       1 <0>        -0.4700
     10 C6          0.5956   -3.1347   -0.0195 C.3       1 <0>         0.1020
     11 C7          0.8993   -4.0677    1.1740 C.3       1 <0>        -0.1600
     12 C8          1.2860   -5.4092    0.5128 C.3       1 <0>         0.0701
     13 O1          0.6563   -5.3753   -0.7865 O.3       1 <0>        -0.3337
     14 C9          0.8348   -4.0228   -1.2606 C.3       1 <0>         0.0356
     15 C10         0.7486   -6.5825    1.3346 C.3       1 <0>         0.1379
     16 O2          1.2143   -7.8109    0.7722 O.3       1 <0>        -0.7611
     17 P1          0.8415   -9.2526    1.3843 P.3       1 <0>         2.2905
     18 O3          1.2383   -9.2967    2.8768 O.2       1 <0>        -1.1059
     19 O4         -0.6787   -9.4923    1.2482 O.3       1 <0>        -1.1172
     20 O5          1.6394  -10.3985    0.5828 O.3       1 <0>        -1.0976
     21 P2          1.9506  -11.9523    0.8675 P.3       1 <0>         2.3454
     22 O6          2.2789  -12.1458    2.3648 O.2       1 <0>        -1.1162
     23 O7          0.7141  -12.8014    0.4975 O.3       1 <0>        -1.1401
     24 O8          3.2083  -12.4195   -0.0224 O.3       1 <0>        -1.1051
     25 P3          4.1883  -13.6965    0.0097 P.3       1 <0>         2.2214
     26 O9          4.5288  -14.0562    1.4960 O.2       1 <0>        -1.1975
     27 O10         3.4801  -14.9155   -0.6736 O.3       1 <0>        -1.2116
     28 O11         5.5096  -13.3603   -0.7621 O.3       1 <0>        -1.2133
     29 N5          3.4393    2.2295   -0.0193 N.pl3     1 <0>        -0.8237
     30 H1         -0.9693    1.8187    0.0257 H         1 <0>         0.2003
     31 H2          3.4551   -2.9572   -0.0459 H         1 <0>         0.2258
     32 H3         -0.4394   -2.7942    0.0128 H         1 <0>         0.1259
     33 H4          1.7304   -3.6780    1.7617 H         1 <0>         0.0902
     34 H5          0.0138   -4.1906    1.7977 H         1 <0>         0.1018
     35 H6          2.3685   -5.4825    0.4081 H         1 <0>         0.0859
     36 H7          0.1054   -3.7937   -2.0375 H         1 <0>         0.1001
     37 H8          1.8481   -3.8834   -1.6374 H         1 <0>         0.0649
     38 H9          1.1003   -6.4973    2.3628 H         1 <0>         0.0680
     39 H10        -0.3412   -6.5668    1.3209 H         1 <0>         0.0572
     40 H11         3.3774    3.1975   -0.0138 H         1 <0>         0.4050
     41 H12         4.3085    1.7992   -0.0299 H         1 <0>         0.4180
@<TRIPOS>BOND
     1    1    6 ar
     2    1    2 ar
     3    1   30 1
     4    2    3 ar
     5    3    4 ar
     6    3   29 1
     7    4    9 1
     8    4    5 ar
     9    5    6 ar
    10    5    7 1
    11    7    8 1
    12    7   10 1
    13    8    9 2
    14    8   31 1
    15   10   14 1
    16   10   11 1
    17   10   32 1
    18   11   12 1
    19   11   33 1
    20   11   34 1
    21   12   13 1
    22   12   15 1
    23   12   35 1
    24   13   14 1
    25   14   36 1
    26   14   37 1
    27   15   16 1
    28   15   38 1
    29   15   39 1
    30   16   17 1
    31   17   18 2
    32   17   19 1
    33   17   20 1
    34   20   21 1
    35   21   22 2
    36   21   23 1
    37   21   24 1
    38   24   25 1
    39   25   26 2
    40   25   27 1
    41   25   28 1
    42   29   40 1
    43   29   41 1
@<TRIPOS>MOLECULE
CHEMBL72472__3
   42    44     0     0     0
SMALL
USER_CHARGES

@<TRIPOS>ATOM
      1 C1         -0.0158    1.3119    0.0093 C.ar      1 <0>         0.3544
      2 N1          1.0888    2.0360    0.0026 N.ar      1 <0>        -0.5985
      3 C2          2.2875    1.4625   -0.0119 C.ar      1 <0>         0.5052
      4 C3          2.3582    0.0588   -0.0202 C.ar      1 <0>        -0.1088
      5 C4          1.1547   -0.6659   -0.0126 C.ar      1 <0>         0.2989
      6 N2          0.0021   -0.0041    0.0020 N.ar      1 <0>        -0.5516
      7 N3          1.5110   -1.9908   -0.0227 N.pl3     1 <0>        -0.4554
      8 C5          2.8729   -2.0476   -0.0358 C.2       1 <0>         0.2619
      9 N4          3.3680   -0.8441   -0.0343 N.2       1 <0>        -0.4681
     10 C6          0.5956   -3.1347   -0.0195 C.3       1 <0>         0.1030
     11 C7          0.8993   -4.0677    1.1740 C.3       1 <0>        -0.1608
     12 C8          1.2860   -5.4092    0.5128 C.3       1 <0>         0.0709
     13 O1          0.6563   -5.3753   -0.7865 O.3       1 <0>        -0.3361
     14 C9          0.8348   -4.0228   -1.2606 C.3       1 <0>         0.0360
     15 C10         0.7486   -6.5825    1.3346 C.3       1 <0>         0.1379
     16 O2          1.2143   -7.8109    0.7722 O.3       1 <0>        -0.7638
     17 P1          0.8415   -9.2526    1.3843 P.3       1 <0>         2.2882
     18 O3          1.2383   -9.2967    2.8768 O.2       1 <0>        -1.1011
     19 O4         -0.6787   -9.4923    1.2482 O.3       1 <0>        -1.1102
     20 O5          1.6394  -10.3985    0.5828 O.3       1 <0>        -1.0977
     21 P2          1.9506  -11.9523    0.8675 P.3       1 <0>         2.3465
     22 O6          2.2789  -12.1458    2.3648 O.2       1 <0>        -1.0969
     23 O7          0.7141  -12.8014    0.4975 O.3       1 <0>        -1.1166
     24 O8          3.2083  -12.4195   -0.0224 O.3       1 <0>        -1.0975
     25 P3          4.1883  -13.6965    0.0097 P.3       1 <0>         2.2694
     26 O9          4.5241  -14.0513    1.4754 O.2       1 <0>        -1.1072
     27 O10         3.4899  -14.8987   -0.6642 O.3       1 <0>        -1.1200
     28 O11         5.5461  -13.3510   -0.7835 O.3       1 <0>        -0.9092
     29 N5          3.4393    2.2295   -0.0193 N.pl3     1 <0>        -0.8226
     30 H1         -0.9693    1.8187    0.0257 H         1 <0>         0.2017
     31 H2          3.4551   -2.9572   -0.0459 H         1 <0>         0.2239
     32 H3         -0.4394   -2.7942    0.0128 H         1 <0>         0.1267
     33 H4          1.7304   -3.6780    1.7617 H         1 <0>         0.0909
     34 H5          0.0138   -4.1906    1.7977 H         1 <0>         0.1024
     35 H6          2.3685   -5.4825    0.4081 H         1 <0>         0.0840
     36 H7          0.1054   -3.7937   -2.0375 H         1 <0>         0.1015
     37 H8          1.8481   -3.8834   -1.6374 H         1 <0>         0.0650
     38 H9          1.1003   -6.4973    2.3628 H         1 <0>         0.0696
     39 H10        -0.3412   -6.5668    1.3209 H         1 <0>         0.0601
     40 H11         6.1847  -14.0768   -0.8047 H         1 <0>         0.3995
     41 H12         3.3774    3.1975   -0.0138 H         1 <0>         0.4063
     42 H13         4.3085    1.7992   -0.0299 H         1 <0>         0.4180
@<TRIPOS>BOND
     1    1    6 ar
     2    1    2 ar
     3    1   30 1
     4    2    3 ar
     5    3    4 ar
     6    3   29 1
     7    4    9 1
     8    4    5 ar
     9    5    6 ar
    10    5    7 1
    11    7    8 1
    12    7   10 1
    13    8    9 2
    14    8   31 1
    15   10   14 1
    16   10   11 1
    17   10   32 1
    18   11   12 1
    19   11   33 1
    20   11   34 1
    21   12   13 1
    22   12   15 1
    23   12   35 1
    24   13   14 1
    25   14   36 1
    26   14   37 1
    27   15   16 1
    28   15   38 1
    29   15   39 1
    30   16   17 1
    31   17   18 2
    32   17   19 1
    33   17   20 1
    34   20   21 1
    35   21   22 2
    36   21   23 1
    37   21   24 1
    38   24   25 1
    39   25   26 2
    40   25   27 1
    41   25   28 1
    42   28   40 1
    43   29   41 1
    44   29   42 1
@<TRIPOS>MOLECULE
CHEMBL72472__4
   41    43     0     0     0
SMALL
USER_CHARGES

@<TRIPOS>ATOM
      1 C1         -0.0158    1.3119    0.0093 C.ar      1 <0>         0.3506
      2 N1          1.0888    2.0360    0.0026 N.ar      1 <0>        -0.6000
      3 C2          2.2875    1.4625   -0.0119 C.ar      1 <0>         0.5039
      4 C3          2.3582    0.0588   -0.0202 C.ar      1 <0>        -0.1075
      5 C4          1.1547   -0.6659   -0.0126 C.ar      1 <0>         0.2970
      6 N2          0.0021   -0.0041    0.0020 N.ar      1 <0>        -0.5497
      7 N3          1.5110   -1.9908   -0.0227 N.pl3     1 <0>        -0.4535
      8 C5          2.8729   -2.0476   -0.0358 C.2       1 <0>         0.2661
      9 N4          3.3680   -0.8441   -0.0343 N.2       1 <0>        -0.4700
     10 C6          0.5956   -3.1347   -0.0195 C.3       1 <0>         0.1020
     11 C7          0.8993   -4.0677    1.1740 C.3       1 <0>        -0.1600
     12 C8          1.2860   -5.4092    0.5128 C.3       1 <0>         0.0701
     13 O1          0.6563   -5.3753   -0.7865 O.3       1 <0>        -0.3337
     14 C9          0.8348   -4.0228   -1.2606 C.3       1 <0>         0.0356
     15 C10         0.7486   -6.5825    1.3346 C.3       1 <0>         0.1379
     16 O2          1.2143   -7.8109    0.7722 O.3       1 <0>        -0.7611
     17 P1          0.8415   -9.2526    1.3843 P.3       1 <0>         2.2905
     18 O3          1.2383   -9.2967    2.8768 O.2       1 <0>        -1.1059
     19 O4         -0.6787   -9.4923    1.2482 O.3       1 <0>        -1.1172
     20 O5          1.6394  -10.3985    0.5828 O.3       1 <0>        -1.0976
     21 P2          1.9506  -11.9523    0.8675 P.3       1 <0>         2.3454
     22 O6          2.2789  -12.1458    2.3648 O.2       1 <0>        -1.1162
     23 O7          0.7141  -12.8014    0.4975 O.3       1 <0>        -1.1401
     24 O8          3.2083  -12.4195   -0.0224 O.3       1 <0>        -1.1051
     25 P3          4.1883  -13.6965    0.0097 P.3       1 <0>         2.2214
     26 O9          4.5288  -14.0562    1.4960 O.2       1 <0>        -1.1975
     27 O10         3.4801  -14.9155   -0.6736 O.3       1 <0>        -1.2116
     28 O11         5.5096  -13.3603   -0.7621 O.3       1 <0>        -1.2133
     29 N5          3.4393    2.2295   -0.0193 N.pl3     1 <0>        -0.8237
     30 H1         -0.9693    1.8187    0.0257 H         1 <0>         0.2003
     31 H2          3.4551   -2.9572   -0.0459 H         1 <0>         0.2258
     32 H3         -0.4394   -2.7942    0.0128 H         1 <0>         0.1259
     33 H4          1.7304   -3.6780    1.7617 H         1 <0>         0.0902
     34 H5          0.0138   -4.1906    1.7977 H         1 <0>         0.1018
     35 H6          2.3685   -5.4825    0.4081 H         1 <0>         0.0859
     36 H7          0.1054   -3.7937   -2.0375 H         1 <0>         0.1001
     37 H8          1.8481   -3.8834   -1.6374 H         1 <0>         0.0649
     38 H9          1.1003   -6.4973    2.3628 H         1 <0>         0.0680
     39 H10        -0.3412   -6.5668    1.3209 H         1 <0>         0.0572
     40 H11         3.3774    3.1975   -0.0138 H         1 <0>         0.4050
     41 H12         4.3085    1.7992   -0.0299 H         1 <0>         0.4180
@<TRIPOS>BOND
     1    1    6 ar
     2    1    2 ar
     3    1   30 1
     4    2    3 ar
     5    3    4 ar
     6    3   29 1
     7    4    9 1
     8    4    5 ar
     9    5    6 ar
    10    5    7 1
    11    7    8 1
    12    7   10 1
    13    8    9 2
    14    8   31 1
    15   10   14 1
    16   10   11 1
    17   10   32 1
    18   11   12 1
    19   11   33 1
    20   11   34 1
    21   12   13 1
    22   12   15 1
    23   12   35 1
    24   13   14 1
    25   14   36 1
    26   14   37 1
    27   15   16 1
    28   15   38 1
    29   15   39 1
    30   16   17 1
    31   17   18 2
    32   17   19 1
    33   17   20 1
    34   20   21 1
    35   21   22 2
    36   21   23 1
    37   21   24 1
    38   24   25 1
    39   25   26 2
    40   25   27 1
    41   25   28 1
    42   29   40 1
    43   29   41 1
@<TRIPOS>MOLECULE
CHEMBL72472__5
   42    44     0     0     0
SMALL
USER_CHARGES

@<TRIPOS>ATOM
      1 C1         -0.0158    1.3119    0.0093 C.ar      1 <0>         0.3544
      2 N1          1.0888    2.0360    0.0026 N.ar      1 <0>        -0.5985
      3 C2          2.2875    1.4625   -0.0119 C.ar      1 <0>         0.5052
      4 C3          2.3582    0.0588   -0.0202 C.ar      1 <0>        -0.1088
      5 C4          1.1547   -0.6659   -0.0126 C.ar      1 <0>         0.2989
      6 N2          0.0021   -0.0041    0.0020 N.ar      1 <0>        -0.5516
      7 N3          1.5110   -1.9908   -0.0227 N.pl3     1 <0>        -0.4554
      8 C5          2.8729   -2.0476   -0.0358 C.2       1 <0>         0.2619
      9 N4          3.3680   -0.8441   -0.0343 N.2       1 <0>        -0.4681
     10 C6          0.5956   -3.1347   -0.0195 C.3       1 <0>         0.1030
     11 C7          0.8993   -4.0677    1.1740 C.3       1 <0>        -0.1608
     12 C8          1.2860   -5.4092    0.5128 C.3       1 <0>         0.0709
     13 O1          0.6563   -5.3753   -0.7865 O.3       1 <0>        -0.3361
     14 C9          0.8348   -4.0228   -1.2606 C.3       1 <0>         0.0360
     15 C10         0.7486   -6.5825    1.3346 C.3       1 <0>         0.1379
     16 O2          1.2143   -7.8109    0.7722 O.3       1 <0>        -0.7638
     17 P1          0.8415   -9.2526    1.3843 P.3       1 <0>         2.2882
     18 O3          1.2383   -9.2967    2.8768 O.2       1 <0>        -1.1011
     19 O4         -0.6787   -9.4923    1.2482 O.3       1 <0>        -1.1102
     20 O5          1.6394  -10.3985    0.5828 O.3       1 <0>        -1.0977
     21 P2          1.9506  -11.9523    0.8675 P.3       1 <0>         2.3465
     22 O6          2.2789  -12.1458    2.3648 O.2       1 <0>        -1.0969
     23 O7          0.7141  -12.8014    0.4975 O.3       1 <0>        -1.1166
     24 O8          3.2083  -12.4195   -0.0224 O.3       1 <0>        -1.0975
     25 P3          4.1883  -13.6965    0.0097 P.3       1 <0>         2.2694
     26 O9          4.5241  -14.0513    1.4754 O.2       1 <0>        -1.1072
     27 O10         3.4899  -14.8987   -0.6642 O.3       1 <0>        -1.1200
     28 O11         5.5461  -13.3510   -0.7835 O.3       1 <0>        -0.9092
     29 N5          3.4393    2.2295   -0.0193 N.pl3     1 <0>        -0.8226
     30 H1         -0.9693    1.8187    0.0257 H         1 <0>         0.2017
     31 H2          3.4551   -2.9572   -0.0459 H         1 <0>         0.2239
     32 H3         -0.4394   -2.7942    0.0128 H         1 <0>         0.1267
     33 H4          1.7304   -3.6780    1.7617 H         1 <0>         0.0909
     34 H5          0.0138   -4.1906    1.7977 H         1 <0>         0.1024
     35 H6          2.3685   -5.4825    0.4081 H         1 <0>         0.0840
     36 H7          0.1054   -3.7937   -2.0375 H         1 <0>         0.1015
     37 H8          1.8481   -3.8834   -1.6374 H         1 <0>         0.0650
     38 H9          1.1003   -6.4973    2.3628 H         1 <0>         0.0696
     39 H10        -0.3412   -6.5668    1.3209 H         1 <0>         0.0601
     40 H11         6.1847  -14.0768   -0.8047 H         1 <0>         0.3995
     41 H12         3.3774    3.1975   -0.0138 H         1 <0>         0.4063
     42 H13         4.3085    1.7992   -0.0299 H         1 <0>         0.4180
@<TRIPOS>BOND
     1    1    6 ar
     2    1    2 ar
     3    1   30 1
     4    2    3 ar
     5    3    4 ar
     6    3   29 1
     7    4    9 1
     8    4    5 ar
     9    5    6 ar
    10    5    7 1
    11    7    8 1
    12    7   10 1
    13    8    9 2
    14    8   31 1
    15   10   14 1
    16   10   11 1
    17   10   32 1
    18   11   12 1
    19   11   33 1
    20   11   34 1
    21   12   13 1
    22   12   15 1
    23   12   35 1
    24   13   14 1
    25   14   36 1
    26   14   37 1
    27   15   16 1
    28   15   38 1
    29   15   39 1
    30   16   17 1
    31   17   18 2
    32   17   19 1
    33   17   20 1
    34   20   21 1
    35   21   22 2
    36   21   23 1
    37   21   24 1
    38   24   25 1
    39   25   26 2
    40   25   27 1
    41   25   28 1
    42   28   40 1
    43   29   41 1
    44   29   42 1
@<TRIPOS>MOLECULE
CHEMBL72472__6
   41    43     0     0     0
SMALL
USER_CHARGES

@<TRIPOS>ATOM
      1 C1         -0.0158    1.3119    0.0093 C.ar      1 <0>         0.3506
      2 N1          1.0888    2.0360    0.0026 N.ar      1 <0>        -0.6000
      3 C2          2.2875    1.4625   -0.0119 C.ar      1 <0>         0.5039
      4 C3          2.3582    0.0588   -0.0202 C.ar      1 <0>        -0.1075
      5 C4          1.1547   -0.6659   -0.0126 C.ar      1 <0>         0.2970
      6 N2          0.0021   -0.0041    0.0020 N.ar      1 <0>        -0.5497
      7 N3          1.5110   -1.9908   -0.0227 N.pl3     1 <0>        -0.4535
      8 C5          2.8729   -2.0476   -0.0358 C.2       1 <0>         0.2661
      9 N4          3.3680   -0.8441   -0.0343 N.2       1 <0>        -0.4700
     10 C6          0.5956   -3.1347   -0.0195 C.3       1 <0>         0.1020
     11 C7          0.8993   -4.0677    1.1740 C.3       1 <0>        -0.1600
     12 C8          1.2860   -5.4092    0.5128 C.3       1 <0>         0.0701
     13 O1          0.6563   -5.3753   -0.7865 O.3       1 <0>        -0.3337
     14 C9          0.8348   -4.0228   -1.2606 C.3       1 <0>         0.0356
     15 C10         0.7486   -6.5825    1.3346 C.3       1 <0>         0.1379
     16 O2          1.2143   -7.8109    0.7722 O.3       1 <0>        -0.7611
     17 P1          0.8415   -9.2526    1.3843 P.3       1 <0>         2.2905
     18 O3          1.2383   -9.2967    2.8768 O.2       1 <0>        -1.1059
     19 O4         -0.6787   -9.4923    1.2482 O.3       1 <0>        -1.1172
     20 O5          1.6394  -10.3985    0.5828 O.3       1 <0>        -1.0976
     21 P2          1.9506  -11.9523    0.8675 P.3       1 <0>         2.3454
     22 O6          2.2789  -12.1458    2.3648 O.2       1 <0>        -1.1162
     23 O7          0.7141  -12.8014    0.4975 O.3       1 <0>        -1.1401
     24 O8          3.2083  -12.4195   -0.0224 O.3       1 <0>        -1.1051
     25 P3          4.1883  -13.6965    0.0097 P.3       1 <0>         2.2214
     26 O9          4.5288  -14.0562    1.4960 O.2       1 <0>        -1.1975
     27 O10         3.4801  -14.9155   -0.6736 O.3       1 <0>        -1.2116
     28 O11         5.5096  -13.3603   -0.7621 O.3       1 <0>        -1.2133
     29 N5          3.4393    2.2295   -0.0193 N.pl3     1 <0>        -0.8237
     30 H1         -0.9693    1.8187    0.0257 H         1 <0>         0.2003
     31 H2          3.4551   -2.9572   -0.0459 H         1 <0>         0.2258
     32 H3         -0.4394   -2.7942    0.0128 H         1 <0>         0.1259
     33 H4          1.7304   -3.6780    1.7617 H         1 <0>         0.0902
     34 H5          0.0138   -4.1906    1.7977 H         1 <0>         0.1018
     35 H6          2.3685   -5.4825    0.4081 H         1 <0>         0.0859
     36 H7          0.1054   -3.7937   -2.0375 H         1 <0>         0.1001
     37 H8          1.8481   -3.8834   -1.6374 H         1 <0>         0.0649
     38 H9          1.1003   -6.4973    2.3628 H         1 <0>         0.0680
     39 H10        -0.3412   -6.5668    1.3209 H         1 <0>         0.0572
     40 H11         3.3774    3.1975   -0.0138 H         1 <0>         0.4050
     41 H12         4.3085    1.7992   -0.0299 H         1 <0>         0.4180
@<TRIPOS>BOND
     1    1    6 ar
     2    1    2 ar
     3    1   30 1
     4    2    3 ar
     5    3    4 ar
     6    3   29 1
     7    4    9 1
     8    4    5 ar
     9    5    6 ar
    10    5    7 1
    11    7    8 1
    12    7   10 1
    13    8    9 2
    14    8   31 1
    15   10   14 1
    16   10   11 1
    17   10   32 1
    18   11   12 1
    19   11   33 1
    20   11   34 1
    21   12   13 1
    22   12   15 1
    23   12   35 1
    24   13   14 1
    25   14   36 1
    26   14   37 1
    27   15   16 1
    28   15   38 1
    29   15   39 1
    30   16   17 1
    31   17   18 2
    32   17   19 1
    33   17   20 1
    34   20   21 1
    35   21   22 2
    36   21   23 1
    37   21   24 1
    38   24   25 1
    39   25   26 2
    40   25   27 1
    41   25   28 1
    42   29   40 1
    43   29   41 1
@<TRIPOS>MOLECULE
CHEMBL72472__7
   42    44     0     0     0
SMALL
USER_CHARGES

@<TRIPOS>ATOM
      1 C1         -0.0158    1.3119    0.0093 C.ar      1 <0>         0.3544
      2 N1          1.0888    2.0360    0.0026 N.ar      1 <0>        -0.5985
      3 C2          2.2875    1.4625   -0.0119 C.ar      1 <0>         0.5052
      4 C3          2.3582    0.0588   -0.0202 C.ar      1 <0>        -0.1088
      5 C4          1.1547   -0.6659   -0.0126 C.ar      1 <0>         0.2989
      6 N2          0.0021   -0.0041    0.0020 N.ar      1 <0>        -0.5516
      7 N3          1.5110   -1.9908   -0.0227 N.pl3     1 <0>        -0.4554
      8 C5          2.8729   -2.0476   -0.0358 C.2       1 <0>         0.2619
      9 N4          3.3680   -0.8441   -0.0343 N.2       1 <0>        -0.4681
     10 C6          0.5956   -3.1347   -0.0195 C.3       1 <0>         0.1030
     11 C7          0.8993   -4.0677    1.1740 C.3       1 <0>        -0.1608
     12 C8          1.2860   -5.4092    0.5128 C.3       1 <0>         0.0709
     13 O1          0.6563   -5.3753   -0.7865 O.3       1 <0>        -0.3361
     14 C9          0.8348   -4.0228   -1.2606 C.3       1 <0>         0.0360
     15 C10         0.7486   -6.5825    1.3346 C.3       1 <0>         0.1379
     16 O2          1.2143   -7.8109    0.7722 O.3       1 <0>        -0.7638
     17 P1          0.8415   -9.2526    1.3843 P.3       1 <0>         2.2882
     18 O3          1.2383   -9.2967    2.8768 O.2       1 <0>        -1.1011
     19 O4         -0.6787   -9.4923    1.2482 O.3       1 <0>        -1.1102
     20 O5          1.6394  -10.3985    0.5828 O.3       1 <0>        -1.0977
     21 P2          1.9506  -11.9523    0.8675 P.3       1 <0>         2.3465
     22 O6          2.2789  -12.1458    2.3648 O.2       1 <0>        -1.0969
     23 O7          0.7141  -12.8014    0.4975 O.3       1 <0>        -1.1166
     24 O8          3.2083  -12.4195   -0.0224 O.3       1 <0>        -1.0975
     25 P3          4.1883  -13.6965    0.0097 P.3       1 <0>         2.2694
     26 O9          4.5241  -14.0513    1.4754 O.2       1 <0>        -1.1072
     27 O10         3.4899  -14.8987   -0.6642 O.3       1 <0>        -1.1200
     28 O11         5.5461  -13.3510   -0.7835 O.3       1 <0>        -0.9092
     29 N5          3.4393    2.2295   -0.0193 N.pl3     1 <0>        -0.8226
     30 H1         -0.9693    1.8187    0.0257 H         1 <0>         0.2017
     31 H2          3.4551   -2.9572   -0.0459 H         1 <0>         0.2239
     32 H3         -0.4394   -2.7942    0.0128 H         1 <0>         0.1267
     33 H4          1.7304   -3.6780    1.7617 H         1 <0>         0.0909
     34 H5          0.0138   -4.1906    1.7977 H         1 <0>         0.1024
     35 H6          2.3685   -5.4825    0.4081 H         1 <0>         0.0840
     36 H7          0.1054   -3.7937   -2.0375 H         1 <0>         0.1015
     37 H8          1.8481   -3.8834   -1.6374 H         1 <0>         0.0650
     38 H9          1.1003   -6.4973    2.3628 H         1 <0>         0.0696
     39 H10        -0.3412   -6.5668    1.3209 H         1 <0>         0.0601
     40 H11         6.1847  -14.0768   -0.8047 H         1 <0>         0.3995
     41 H12         3.3774    3.1975   -0.0138 H         1 <0>         0.4063
     42 H13         4.3085    1.7992   -0.0299 H         1 <0>         0.4180
@<TRIPOS>BOND
     1    1    6 ar
     2    1    2 ar
     3    1   30 1
     4    2    3 ar
     5    3    4 ar
     6    3   29 1
     7    4    9 1
     8    4    5 ar
     9    5    6 ar
    10    5    7 1
    11    7    8 1
    12    7   10 1
    13    8    9 2
    14    8   31 1
    15   10   14 1
    16   10   11 1
    17   10   32 1
    18   11   12 1
    19   11   33 1
    20   11   34 1
    21   12   13 1
    22   12   15 1
    23   12   35 1
    24   13   14 1
    25   14   36 1
    26   14   37 1
    27   15   16 1
    28   15   38 1
    29   15   39 1
    30   16   17 1
    31   17   18 2
    32   17   19 1
    33   17   20 1
    34   20   21 1
    35   21   22 2
    36   21   23 1
    37   21   24 1
    38   24   25 1
    39   25   26 2
    40   25   27 1
    41   25   28 1
    42   28   40 1
    43   29   41 1
    44   29   42 1
@<TRIPOS>MOLECULE
CHEMBL72472__8
   41    43     0     0     0
SMALL
USER_CHARGES

@<TRIPOS>ATOM
      1 C1         -0.0158    1.3119    0.0093 C.ar      1 <0>         0.3488
      2 N1          1.0888    2.0360    0.0026 N.ar      1 <0>        -0.6004
      3 C2          2.2875    1.4625   -0.0119 C.ar      1 <0>         0.5035
      4 C3          2.3582    0.0588   -0.0202 C.ar      1 <0>        -0.1063
      5 C4          1.1547   -0.6659   -0.0126 C.ar      1 <0>         0.2941
      6 N2          0.0021   -0.0041    0.0020 N.ar      1 <0>        -0.5509
      7 N3          1.5110   -1.9908   -0.0227 N.pl3     1 <0>        -0.4546
      8 C5          2.8729   -2.0476   -0.0358 C.2       1 <0>         0.2724
      9 N4          3.3680   -0.8441   -0.0343 N.2       1 <0>        -0.4712
     10 C6          0.5956   -3.1347   -0.0195 C.3       1 <0>         0.1027
     11 C7          0.8983   -4.0675    1.1783 C.3       1 <0>        -0.1590
     12 C8          0.7408   -5.4727    0.5434 C.3       1 <0>         0.0760
     13 O1          1.2780   -5.3037   -0.7861 O.3       1 <0>        -0.3400
     14 C9          0.8347   -4.0202   -1.2578 C.3       1 <0>         0.0352
     15 C10         1.5504   -6.5103    1.3237 C.3       1 <0>         0.1387
     16 O2          1.2968   -7.8116    0.7905 O.3       1 <0>        -0.7608
     17 P1          1.9837   -9.1466    1.3719 P.3       1 <0>         2.2905
     18 O3          3.5198   -8.9811    1.3632 O.2       1 <0>        -1.1044
     19 O4          1.4997   -9.3864    2.8194 O.3       1 <0>        -1.1187
     20 O5          1.5742  -10.4042    0.4538 O.3       1 <0>        -1.0976
     21 P2          2.1366  -11.9046    0.2971 P.3       1 <0>         2.3457
     22 O6          3.6801  -11.8856    0.3629 O.2       1 <0>        -1.1159
     23 O7          1.5833  -12.7841    1.4404 O.3       1 <0>        -1.1404
     24 O8          1.6673  -12.5084   -1.1197 O.3       1 <0>        -1.1051
     25 P3          2.1202  -13.7785   -1.9994 P.3       1 <0>         2.2216
     26 O9          3.6788  -13.9256   -1.9404 O.2       1 <0>        -1.1974
     27 O10         1.4512  -15.0748   -1.4279 O.3       1 <0>        -1.2118
     28 O11         1.6712  -13.5710   -3.4859 O.3       1 <0>        -1.2132
     29 N5          3.4393    2.2295   -0.0193 N.pl3     1 <0>        -0.8237
     30 H1         -0.9693    1.8187    0.0257 H         1 <0>         0.1994
     31 H2          3.4551   -2.9572   -0.0459 H         1 <0>         0.2298
     32 H3         -0.4393   -2.7939    0.0117 H         1 <0>         0.1239
     33 H4          1.9148   -3.9166    1.5417 H         1 <0>         0.0933
     34 H5          0.1742   -3.9193    1.9794 H         1 <0>         0.0976
     35 H6         -0.3101   -5.7584    0.4993 H         1 <0>         0.0877
     36 H7         -0.0934   -4.1317   -1.8185 H         1 <0>         0.0753
     37 H8          1.6011   -3.5731   -1.8908 H         1 <0>         0.0875
     38 H9          2.6128   -6.2827    1.2365 H         1 <0>         0.0611
     39 H10         1.2583   -6.4845    2.3735 H         1 <0>         0.0637
     40 H11         3.3774    3.1975   -0.0138 H         1 <0>         0.4047
     41 H12         4.3085    1.7992   -0.0299 H         1 <0>         0.4183
@<TRIPOS>BOND
     1    1    6 ar
     2    1    2 ar
     3    1   30 1
     4    2    3 ar
     5    3    4 ar
     6    3   29 1
     7    4    9 1
     8    4    5 ar
     9    5    6 ar
    10    5    7 1
    11    7    8 1
    12    7   10 1
    13    8    9 2
    14    8   31 1
    15   10   14 1
    16   10   11 1
    17   10   32 1
    18   11   12 1
    19   11   33 1
    20   11   34 1
    21   12   13 1
    22   12   15 1
    23   12   35 1
    24   13   14 1
    25   14   36 1
    26   14   37 1
    27   15   16 1
    28   15   38 1
    29   15   39 1
    30   16   17 1
    31   17   18 2
    32   17   19 1
    33   17   20 1
    34   20   21 1
    35   21   22 2
    36   21   23 1
    37   21   24 1
    38   24   25 1
    39   25   26 2
    40   25   27 1
    41   25   28 1
    42   29   40 1
    43   29   41 1
@<TRIPOS>MOLECULE
CHEMBL72472__9
   42    44     0     0     0
SMALL
USER_CHARGES

@<TRIPOS>ATOM
      1 C1         -0.0158    1.3119    0.0093 C.ar      1 <0>         0.3523
      2 N1          1.0888    2.0360    0.0026 N.ar      1 <0>        -0.5990
      3 C2          2.2875    1.4625   -0.0119 C.ar      1 <0>         0.5050
      4 C3          2.3582    0.0588   -0.0202 C.ar      1 <0>        -0.1074
      5 C4          1.1547   -0.6659   -0.0126 C.ar      1 <0>         0.2957
      6 N2          0.0021   -0.0041    0.0020 N.ar      1 <0>        -0.5532
      7 N3          1.5110   -1.9908   -0.0227 N.pl3     1 <0>        -0.4568
      8 C5          2.8729   -2.0476   -0.0358 C.2       1 <0>         0.2686
      9 N4          3.3680   -0.8441   -0.0343 N.2       1 <0>        -0.4687
     10 C6          0.5956   -3.1347   -0.0195 C.3       1 <0>         0.1040
     11 C7          0.8983   -4.0675    1.1783 C.3       1 <0>        -0.1598
     12 C8          0.7408   -5.4727    0.5434 C.3       1 <0>         0.0764
     13 O1          1.2780   -5.3037   -0.7861 O.3       1 <0>        -0.3441
     14 C9          0.8347   -4.0202   -1.2578 C.3       1 <0>         0.0357
     15 C10         1.5504   -6.5103    1.3237 C.3       1 <0>         0.1390
     16 O2          1.2968   -7.8116    0.7905 O.3       1 <0>        -0.7635
     17 P1          1.9837   -9.1466    1.3719 P.3       1 <0>         2.2883
     18 O3          3.5198   -8.9811    1.3632 O.2       1 <0>        -1.0996
     19 O4          1.4997   -9.3864    2.8194 O.3       1 <0>        -1.1117
     20 O5          1.5742  -10.4042    0.4538 O.3       1 <0>        -1.0977
     21 P2          2.1366  -11.9046    0.2971 P.3       1 <0>         2.3468
     22 O6          3.6801  -11.8856    0.3629 O.2       1 <0>        -1.0967
     23 O7          1.5833  -12.7841    1.4404 O.3       1 <0>        -1.1170
     24 O8          1.6673  -12.5084   -1.1197 O.3       1 <0>        -1.0975
     25 P3          2.1202  -13.7785   -1.9994 P.3       1 <0>         2.2697
     26 O9          3.6572  -13.9236   -1.9412 O.2       1 <0>        -1.1072
     27 O10         1.4605  -15.0569   -1.4358 O.3       1 <0>        -1.1202
     28 O11         1.6587  -13.5653   -3.5271 O.3       1 <0>        -0.9092
     29 N5          3.4393    2.2295   -0.0193 N.pl3     1 <0>        -0.8223
     30 H1         -0.9693    1.8187    0.0257 H         1 <0>         0.2006
     31 H2          3.4551   -2.9572   -0.0459 H         1 <0>         0.2284
     32 H3         -0.4393   -2.7939    0.0117 H         1 <0>         0.1243
     33 H4          1.9148   -3.9166    1.5417 H         1 <0>         0.0940
     34 H5          0.1742   -3.9193    1.9794 H         1 <0>         0.0988
     35 H6         -0.3101   -5.7584    0.4993 H         1 <0>         0.0873
     36 H7         -0.0934   -4.1317   -1.8185 H         1 <0>         0.0751
     37 H8          1.6011   -3.5731   -1.8908 H         1 <0>         0.0884
     38 H9          2.6128   -6.2827    1.2365 H         1 <0>         0.0629
     39 H10         1.2583   -6.4845    2.3735 H         1 <0>         0.0665
     40 H11         1.8991  -14.2937   -4.1159 H         1 <0>         0.3994
     41 H12         3.3774    3.1975   -0.0138 H         1 <0>         0.4060
     42 H13         4.3085    1.7992   -0.0299 H         1 <0>         0.4185
@<TRIPOS>BOND
     1    1    6 ar
     2    1    2 ar
     3    1   30 1
     4    2    3 ar
     5    3    4 ar
     6    3   29 1
     7    4    9 1
     8    4    5 ar
     9    5    6 ar
    10    5    7 1
    11    7    8 1
    12    7   10 1
    13    8    9 2
    14    8   31 1
    15   10   14 1
    16   10   11 1
    17   10   32 1
    18   11   12 1
    19   11   33 1
    20   11   34 1
    21   12   13 1
    22   12   15 1
    23   12   35 1
    24   13   14 1
    25   14   36 1
    26   14   37 1
    27   15   16 1
    28   15   38 1
    29   15   39 1
    30   16   17 1
    31   17   18 2
    32   17   19 1
    33   17   20 1
    34   20   21 1
    35   21   22 2
    36   21   23 1
    37   21   24 1
    38   24   25 1
    39   25   26 2
    40   25   27 1
    41   25   28 1
    42   28   40 1
    43   29   41 1
    44   29   42 1
@<TRIPOS>MOLECULE
CHEMBL72472__10
   41    43     0     0     0
SMALL
USER_CHARGES

@<TRIPOS>ATOM
      1 C1         -0.0158    1.3119    0.0093 C.ar      1 <0>         0.3488
      2 N1          1.0888    2.0360    0.0026 N.ar      1 <0>        -0.6004
      3 C2          2.2875    1.4625   -0.0119 C.ar      1 <0>         0.5035
      4 C3          2.3582    0.0588   -0.0202 C.ar      1 <0>        -0.1063
      5 C4          1.1547   -0.6659   -0.0126 C.ar      1 <0>         0.2941
      6 N2          0.0021   -0.0041    0.0020 N.ar      1 <0>        -0.5509
      7 N3          1.5110   -1.9908   -0.0227 N.pl3     1 <0>        -0.4546
      8 C5          2.8729   -2.0476   -0.0358 C.2       1 <0>         0.2724
      9 N4          3.3680   -0.8441   -0.0343 N.2       1 <0>        -0.4712
     10 C6          0.5956   -3.1347   -0.0195 C.3       1 <0>         0.1027
     11 C7          0.8983   -4.0675    1.1783 C.3       1 <0>        -0.1590
     12 C8          0.7408   -5.4727    0.5434 C.3       1 <0>         0.0760
     13 O1          1.2780   -5.3037   -0.7861 O.3       1 <0>        -0.3400
     14 C9          0.8347   -4.0202   -1.2578 C.3       1 <0>         0.0352
     15 C10         1.5504   -6.5103    1.3237 C.3       1 <0>         0.1387
     16 O2          1.2968   -7.8116    0.7905 O.3       1 <0>        -0.7608
     17 P1          1.9837   -9.1466    1.3719 P.3       1 <0>         2.2905
     18 O3          3.5198   -8.9811    1.3632 O.2       1 <0>        -1.1044
     19 O4          1.4997   -9.3864    2.8194 O.3       1 <0>        -1.1187
     20 O5          1.5742  -10.4042    0.4538 O.3       1 <0>        -1.0976
     21 P2          2.1366  -11.9046    0.2971 P.3       1 <0>         2.3457
     22 O6          3.6801  -11.8856    0.3629 O.2       1 <0>        -1.1159
     23 O7          1.5833  -12.7841    1.4404 O.3       1 <0>        -1.1404
     24 O8          1.6673  -12.5084   -1.1197 O.3       1 <0>        -1.1051
     25 P3          2.1202  -13.7785   -1.9994 P.3       1 <0>         2.2216
     26 O9          3.6788  -13.9256   -1.9404 O.2       1 <0>        -1.1974
     27 O10         1.4512  -15.0748   -1.4279 O.3       1 <0>        -1.2118
     28 O11         1.6712  -13.5710   -3.4859 O.3       1 <0>        -1.2132
     29 N5          3.4393    2.2295   -0.0193 N.pl3     1 <0>        -0.8237
     30 H1         -0.9693    1.8187    0.0257 H         1 <0>         0.1994
     31 H2          3.4551   -2.9572   -0.0459 H         1 <0>         0.2298
     32 H3         -0.4393   -2.7939    0.0117 H         1 <0>         0.1239
     33 H4          1.9148   -3.9166    1.5417 H         1 <0>         0.0933
     34 H5          0.1742   -3.9193    1.9794 H         1 <0>         0.0976
     35 H6         -0.3101   -5.7584    0.4993 H         1 <0>         0.0877
     36 H7         -0.0934   -4.1317   -1.8185 H         1 <0>         0.0753
     37 H8          1.6011   -3.5731   -1.8908 H         1 <0>         0.0875
     38 H9          2.6128   -6.2827    1.2365 H         1 <0>         0.0611
     39 H10         1.2583   -6.4845    2.3735 H         1 <0>         0.0637
     40 H11         3.3774    3.1975   -0.0138 H         1 <0>         0.4047
     41 H12         4.3085    1.7992   -0.0299 H         1 <0>         0.4183
@<TRIPOS>BOND
     1    1    6 ar
     2    1    2 ar
     3    1   30 1
     4    2    3 ar
     5    3    4 ar
     6    3   29 1
     7    4    9 1
     8    4    5 ar
     9    5    6 ar
    10    5    7 1
    11    7    8 1
    12    7   10 1
    13    8    9 2
    14    8   31 1
    15   10   14 1
    16   10   11 1
    17   10   32 1
    18   11   12 1
    19   11   33 1
    20   11   34 1
    21   12   13 1
    22   12   15 1
    23   12   35 1
    24   13   14 1
    25   14   36 1
    26   14   37 1
    27   15   16 1
    28   15   38 1
    29   15   39 1
    30   16   17 1
    31   17   18 2
    32   17   19 1
    33   17   20 1
    34   20   21 1
    35   21   22 2
    36   21   23 1
    37   21   24 1
    38   24   25 1
    39   25   26 2
    40   25   27 1
    41   25   28 1
    42   29   40 1
    43   29   41 1
@<TRIPOS>MOLECULE
CHEMBL72472__11
   42    44     0     0     0
SMALL
USER_CHARGES

@<TRIPOS>ATOM
      1 C1         -0.0158    1.3119    0.0093 C.ar      1 <0>         0.3523
      2 N1          1.0888    2.0360    0.0026 N.ar      1 <0>        -0.5990
      3 C2          2.2875    1.4625   -0.0119 C.ar      1 <0>         0.5050
      4 C3          2.3582    0.0588   -0.0202 C.ar      1 <0>        -0.1074
      5 C4          1.1547   -0.6659   -0.0126 C.ar      1 <0>         0.2957
      6 N2          0.0021   -0.0041    0.0020 N.ar      1 <0>        -0.5532
      7 N3          1.5110   -1.9908   -0.0227 N.pl3     1 <0>        -0.4568
      8 C5          2.8729   -2.0476   -0.0358 C.2       1 <0>         0.2686
      9 N4          3.3680   -0.8441   -0.0343 N.2       1 <0>        -0.4687
     10 C6          0.5956   -3.1347   -0.0195 C.3       1 <0>         0.1040
     11 C7          0.8983   -4.0675    1.1783 C.3       1 <0>        -0.1598
     12 C8          0.7408   -5.4727    0.5434 C.3       1 <0>         0.0764
     13 O1          1.2780   -5.3037   -0.7861 O.3       1 <0>        -0.3441
     14 C9          0.8347   -4.0202   -1.2578 C.3       1 <0>         0.0357
     15 C10         1.5504   -6.5103    1.3237 C.3       1 <0>         0.1390
     16 O2          1.2968   -7.8116    0.7905 O.3       1 <0>        -0.7635
     17 P1          1.9837   -9.1466    1.3719 P.3       1 <0>         2.2883
     18 O3          3.5198   -8.9811    1.3632 O.2       1 <0>        -1.0996
     19 O4          1.4997   -9.3864    2.8194 O.3       1 <0>        -1.1117
     20 O5          1.5742  -10.4042    0.4538 O.3       1 <0>        -1.0977
     21 P2          2.1366  -11.9046    0.2971 P.3       1 <0>         2.3468
     22 O6          3.6801  -11.8856    0.3629 O.2       1 <0>        -1.0967
     23 O7          1.5833  -12.7841    1.4404 O.3       1 <0>        -1.1170
     24 O8          1.6673  -12.5084   -1.1197 O.3       1 <0>        -1.0975
     25 P3          2.1202  -13.7785   -1.9994 P.3       1 <0>         2.2697
     26 O9          3.6572  -13.9236   -1.9412 O.2       1 <0>        -1.1072
     27 O10         1.4605  -15.0569   -1.4358 O.3       1 <0>        -1.1202
     28 O11         1.6587  -13.5653   -3.5271 O.3       1 <0>        -0.9092
     29 N5          3.4393    2.2295   -0.0193 N.pl3     1 <0>        -0.8223
     30 H1         -0.9693    1.8187    0.0257 H         1 <0>         0.2006
     31 H2          3.4551   -2.9572   -0.0459 H         1 <0>         0.2284
     32 H3         -0.4393   -2.7939    0.0117 H         1 <0>         0.1243
     33 H4          1.9148   -3.9166    1.5417 H         1 <0>         0.0940
     34 H5          0.1742   -3.9193    1.9794 H         1 <0>         0.0988
     35 H6         -0.3101   -5.7584    0.4993 H         1 <0>         0.0873
     36 H7         -0.0934   -4.1317   -1.8185 H         1 <0>         0.0751
     37 H8          1.6011   -3.5731   -1.8908 H         1 <0>         0.0884
     38 H9          2.6128   -6.2827    1.2365 H         1 <0>         0.0629
     39 H10         1.2583   -6.4845    2.3735 H         1 <0>         0.0665
     40 H11         1.8991  -14.2937   -4.1159 H         1 <0>         0.3994
     41 H12         3.3774    3.1975   -0.0138 H         1 <0>         0.4060
     42 H13         4.3085    1.7992   -0.0299 H         1 <0>         0.4185
@<TRIPOS>BOND
     1    1    6 ar
     2    1    2 ar
     3    1   30 1
     4    2    3 ar
     5    3    4 ar
     6    3   29 1
     7    4    9 1
     8    4    5 ar
     9    5    6 ar
    10    5    7 1
    11    7    8 1
    12    7   10 1
    13    8    9 2
    14    8   31 1
    15   10   14 1
    16   10   11 1
    17   10   32 1
    18   11   12 1
    19   11   33 1
    20   11   34 1
    21   12   13 1
    22   12   15 1
    23   12   35 1
    24   13   14 1
    25   14   36 1
    26   14   37 1
    27   15   16 1
    28   15   38 1
    29   15   39 1
    30   16   17 1
    31   17   18 2
    32   17   19 1
    33   17   20 1
    34   20   21 1
    35   21   22 2
    36   21   23 1
    37   21   24 1
    38   24   25 1
    39   25   26 2
    40   25   27 1
    41   25   28 1
    42   28   40 1
    43   29   41 1
    44   29   42 1
@<TRIPOS>MOLECULE
CHEMBL72472__12
   41    43     0     0     0
SMALL
USER_CHARGES

@<TRIPOS>ATOM
      1 C1         -0.0158    1.3119    0.0093 C.ar      1 <0>         0.3488
      2 N1          1.0888    2.0360    0.0026 N.ar      1 <0>        -0.6004
      3 C2          2.2875    1.4625   -0.0119 C.ar      1 <0>         0.5035
      4 C3          2.3582    0.0588   -0.0202 C.ar      1 <0>        -0.1063
      5 C4          1.1547   -0.6659   -0.0126 C.ar      1 <0>         0.2941
      6 N2          0.0021   -0.0041    0.0020 N.ar      1 <0>        -0.5509
      7 N3          1.5110   -1.9908   -0.0227 N.pl3     1 <0>        -0.4546
      8 C5          2.8729   -2.0476   -0.0358 C.2       1 <0>         0.2724
      9 N4          3.3680   -0.8441   -0.0343 N.2       1 <0>        -0.4712
     10 C6          0.5956   -3.1347   -0.0195 C.3       1 <0>         0.1027
     11 C7          0.8983   -4.0675    1.1783 C.3       1 <0>        -0.1590
     12 C8          0.7408   -5.4727    0.5434 C.3       1 <0>         0.0760
     13 O1          1.2780   -5.3037   -0.7861 O.3       1 <0>        -0.3400
     14 C9          0.8347   -4.0202   -1.2578 C.3       1 <0>         0.0352
     15 C10         1.5504   -6.5103    1.3237 C.3       1 <0>         0.1387
     16 O2          1.2968   -7.8116    0.7905 O.3       1 <0>        -0.7608
     17 P1          1.9837   -9.1466    1.3719 P.3       1 <0>         2.2905
     18 O3          3.5198   -8.9811    1.3632 O.2       1 <0>        -1.1044
     19 O4          1.4997   -9.3864    2.8194 O.3       1 <0>        -1.1187
     20 O5          1.5742  -10.4042    0.4538 O.3       1 <0>        -1.0976
     21 P2          2.1366  -11.9046    0.2971 P.3       1 <0>         2.3457
     22 O6          3.6801  -11.8856    0.3629 O.2       1 <0>        -1.1159
     23 O7          1.5833  -12.7841    1.4404 O.3       1 <0>        -1.1404
     24 O8          1.6673  -12.5084   -1.1197 O.3       1 <0>        -1.1051
     25 P3          2.1202  -13.7785   -1.9994 P.3       1 <0>         2.2216
     26 O9          3.6788  -13.9256   -1.9404 O.2       1 <0>        -1.1974
     27 O10         1.4512  -15.0748   -1.4279 O.3       1 <0>        -1.2118
     28 O11         1.6712  -13.5710   -3.4859 O.3       1 <0>        -1.2132
     29 N5          3.4393    2.2295   -0.0193 N.pl3     1 <0>        -0.8237
     30 H1         -0.9693    1.8187    0.0257 H         1 <0>         0.1994
     31 H2          3.4551   -2.9572   -0.0459 H         1 <0>         0.2298
     32 H3         -0.4393   -2.7939    0.0117 H         1 <0>         0.1239
     33 H4          1.9148   -3.9166    1.5417 H         1 <0>         0.0933
     34 H5          0.1742   -3.9193    1.9794 H         1 <0>         0.0976
     35 H6         -0.3101   -5.7584    0.4993 H         1 <0>         0.0877
     36 H7         -0.0934   -4.1317   -1.8185 H         1 <0>         0.0753
     37 H8          1.6011   -3.5731   -1.8908 H         1 <0>         0.0875
     38 H9          2.6128   -6.2827    1.2365 H         1 <0>         0.0611
     39 H10         1.2583   -6.4845    2.3735 H         1 <0>         0.0637
     40 H11         3.3774    3.1975   -0.0138 H         1 <0>         0.4047
     41 H12         4.3085    1.7992   -0.0299 H         1 <0>         0.4183
@<TRIPOS>BOND
     1    1    6 ar
     2    1    2 ar
     3    1   30 1
     4    2    3 ar
     5    3    4 ar
     6    3   29 1
     7    4    9 1
     8    4    5 ar
     9    5    6 ar
    10    5    7 1
    11    7    8 1
    12    7   10 1
    13    8    9 2
    14    8   31 1
    15   10   14 1
    16   10   11 1
    17   10   32 1
    18   11   12 1
    19   11   33 1
    20   11   34 1
    21   12   13 1
    22   12   15 1
    23   12   35 1
    24   13   14 1
    25   14   36 1
    26   14   37 1
    27   15   16 1
    28   15   38 1
    29   15   39 1
    30   16   17 1
    31   17   18 2
    32   17   19 1
    33   17   20 1
    34   20   21 1
    35   21   22 2
    36   21   23 1
    37   21   24 1
    38   24   25 1
    39   25   26 2
    40   25   27 1
    41   25   28 1
    42   29   40 1
    43   29   41 1
@<TRIPOS>MOLECULE
CHEMBL72472__13
   42    44     0     0     0
SMALL
USER_CHARGES

@<TRIPOS>ATOM
      1 C1         -0.0158    1.3119    0.0093 C.ar      1 <0>         0.3523
      2 N1          1.0888    2.0360    0.0026 N.ar      1 <0>        -0.5990
      3 C2          2.2875    1.4625   -0.0119 C.ar      1 <0>         0.5050
      4 C3          2.3582    0.0588   -0.0202 C.ar      1 <0>        -0.1074
      5 C4          1.1547   -0.6659   -0.0126 C.ar      1 <0>         0.2957
      6 N2          0.0021   -0.0041    0.0020 N.ar      1 <0>        -0.5532
      7 N3          1.5110   -1.9908   -0.0227 N.pl3     1 <0>        -0.4568
      8 C5          2.8729   -2.0476   -0.0358 C.2       1 <0>         0.2686
      9 N4          3.3680   -0.8441   -0.0343 N.2       1 <0>        -0.4687
     10 C6          0.5956   -3.1347   -0.0195 C.3       1 <0>         0.1040
     11 C7          0.8983   -4.0675    1.1783 C.3       1 <0>        -0.1598
     12 C8          0.7408   -5.4727    0.5434 C.3       1 <0>         0.0764
     13 O1          1.2780   -5.3037   -0.7861 O.3       1 <0>        -0.3441
     14 C9          0.8347   -4.0202   -1.2578 C.3       1 <0>         0.0357
     15 C10         1.5504   -6.5103    1.3237 C.3       1 <0>         0.1390
     16 O2          1.2968   -7.8116    0.7905 O.3       1 <0>        -0.7635
     17 P1          1.9837   -9.1466    1.3719 P.3       1 <0>         2.2883
     18 O3          3.5198   -8.9811    1.3632 O.2       1 <0>        -1.0996
     19 O4          1.4997   -9.3864    2.8194 O.3       1 <0>        -1.1117
     20 O5          1.5742  -10.4042    0.4538 O.3       1 <0>        -1.0977
     21 P2          2.1366  -11.9046    0.2971 P.3       1 <0>         2.3468
     22 O6          3.6801  -11.8856    0.3629 O.2       1 <0>        -1.0967
     23 O7          1.5833  -12.7841    1.4404 O.3       1 <0>        -1.1170
     24 O8          1.6673  -12.5084   -1.1197 O.3       1 <0>        -1.0975
     25 P3          2.1202  -13.7785   -1.9994 P.3       1 <0>         2.2697
     26 O9          3.6572  -13.9236   -1.9412 O.2       1 <0>        -1.1072
     27 O10         1.4605  -15.0569   -1.4358 O.3       1 <0>        -1.1202
     28 O11         1.6587  -13.5653   -3.5271 O.3       1 <0>        -0.9092
     29 N5          3.4393    2.2295   -0.0193 N.pl3     1 <0>        -0.8223
     30 H1         -0.9693    1.8187    0.0257 H         1 <0>         0.2006
     31 H2          3.4551   -2.9572   -0.0459 H         1 <0>         0.2284
     32 H3         -0.4393   -2.7939    0.0117 H         1 <0>         0.1243
     33 H4          1.9148   -3.9166    1.5417 H         1 <0>         0.0940
     34 H5          0.1742   -3.9193    1.9794 H         1 <0>         0.0988
     35 H6         -0.3101   -5.7584    0.4993 H         1 <0>         0.0873
     36 H7         -0.0934   -4.1317   -1.8185 H         1 <0>         0.0751
     37 H8          1.6011   -3.5731   -1.8908 H         1 <0>         0.0884
     38 H9          2.6128   -6.2827    1.2365 H         1 <0>         0.0629
     39 H10         1.2583   -6.4845    2.3735 H         1 <0>         0.0665
     40 H11         1.8991  -14.2937   -4.1159 H         1 <0>         0.3994
     41 H12         3.3774    3.1975   -0.0138 H         1 <0>         0.4060
     42 H13         4.3085    1.7992   -0.0299 H         1 <0>         0.4185
@<TRIPOS>BOND
     1    1    6 ar
     2    1    2 ar
     3    1   30 1
     4    2    3 ar
     5    3    4 ar
     6    3   29 1
     7    4    9 1
     8    4    5 ar
     9    5    6 ar
    10    5    7 1
    11    7    8 1
    12    7   10 1
    13    8    9 2
    14    8   31 1
    15   10   14 1
    16   10   11 1
    17   10   32 1
    18   11   12 1
    19   11   33 1
    20   11   34 1
    21   12   13 1
    22   12   15 1
    23   12   35 1
    24   13   14 1
    25   14   36 1
    26   14   37 1
    27   15   16 1
    28   15   38 1
    29   15   39 1
    30   16   17 1
    31   17   18 2
    32   17   19 1
    33   17   20 1
    34   20   21 1
    35   21   22 2
    36   21   23 1
    37   21   24 1
    38   24   25 1
    39   25   26 2
    40   25   27 1
    41   25   28 1
    42   28   40 1
    43   29   41 1
    44   29   42 1
@<TRIPOS>MOLECULE
CHEMBL72472__14
   41    43     0     0     0
SMALL
USER_CHARGES

@<TRIPOS>ATOM
      1 C1         -0.0158    1.3119    0.0093 C.ar      1 <0>         0.3488
      2 N1          1.0888    2.0360    0.0026 N.ar      1 <0>        -0.6004
      3 C2          2.2875    1.4625   -0.0119 C.ar      1 <0>         0.5035
      4 C3          2.3582    0.0588   -0.0202 C.ar      1 <0>        -0.1063
      5 C4          1.1547   -0.6659   -0.0126 C.ar      1 <0>         0.2941
      6 N2          0.0021   -0.0041    0.0020 N.ar      1 <0>        -0.5509
      7 N3          1.5110   -1.9908   -0.0227 N.pl3     1 <0>        -0.4546
      8 C5          2.8729   -2.0476   -0.0358 C.2       1 <0>         0.2724
      9 N4          3.3680   -0.8441   -0.0343 N.2       1 <0>        -0.4712
     10 C6          0.5956   -3.1347   -0.0195 C.3       1 <0>         0.1027
     11 C7          0.8983   -4.0675    1.1783 C.3       1 <0>        -0.1590
     12 C8          0.7408   -5.4727    0.5434 C.3       1 <0>         0.0760
     13 O1          1.2780   -5.3037   -0.7861 O.3       1 <0>        -0.3400
     14 C9          0.8347   -4.0202   -1.2578 C.3       1 <0>         0.0352
     15 C10         1.5504   -6.5103    1.3237 C.3       1 <0>         0.1387
     16 O2          1.2968   -7.8116    0.7905 O.3       1 <0>        -0.7608
     17 P1          1.9837   -9.1466    1.3719 P.3       1 <0>         2.2905
     18 O3          3.5198   -8.9811    1.3632 O.2       1 <0>        -1.1044
     19 O4          1.4997   -9.3864    2.8194 O.3       1 <0>        -1.1187
     20 O5          1.5742  -10.4042    0.4538 O.3       1 <0>        -1.0976
     21 P2          2.1366  -11.9046    0.2971 P.3       1 <0>         2.3457
     22 O6          3.6801  -11.8856    0.3629 O.2       1 <0>        -1.1159
     23 O7          1.5833  -12.7841    1.4404 O.3       1 <0>        -1.1404
     24 O8          1.6673  -12.5084   -1.1197 O.3       1 <0>        -1.1051
     25 P3          2.1202  -13.7785   -1.9994 P.3       1 <0>         2.2216
     26 O9          3.6788  -13.9256   -1.9404 O.2       1 <0>        -1.1974
     27 O10         1.4512  -15.0748   -1.4279 O.3       1 <0>        -1.2118
     28 O11         1.6712  -13.5710   -3.4859 O.3       1 <0>        -1.2132
     29 N5          3.4393    2.2295   -0.0193 N.pl3     1 <0>        -0.8237
     30 H1         -0.9693    1.8187    0.0257 H         1 <0>         0.1994
     31 H2          3.4551   -2.9572   -0.0459 H         1 <0>         0.2298
     32 H3         -0.4393   -2.7939    0.0117 H         1 <0>         0.1239
     33 H4          1.9148   -3.9166    1.5417 H         1 <0>         0.0933
     34 H5          0.1742   -3.9193    1.9794 H         1 <0>         0.0976
     35 H6         -0.3101   -5.7584    0.4993 H         1 <0>         0.0877
     36 H7         -0.0934   -4.1317   -1.8185 H         1 <0>         0.0753
     37 H8          1.6011   -3.5731   -1.8908 H         1 <0>         0.0875
     38 H9          2.6128   -6.2827    1.2365 H         1 <0>         0.0611
     39 H10         1.2583   -6.4845    2.3735 H         1 <0>         0.0637
     40 H11         3.3774    3.1975   -0.0138 H         1 <0>         0.4047
     41 H12         4.3085    1.7992   -0.0299 H         1 <0>         0.4183
@<TRIPOS>BOND
     1    1    6 ar
     2    1    2 ar
     3    1   30 1
     4    2    3 ar
     5    3    4 ar
     6    3   29 1
     7    4    9 1
     8    4    5 ar
     9    5    6 ar
    10    5    7 1
    11    7    8 1
    12    7   10 1
    13    8    9 2
    14    8   31 1
    15   10   14 1
    16   10   11 1
    17   10   32 1
    18   11   12 1
    19   11   33 1
    20   11   34 1
    21   12   13 1
    22   12   15 1
    23   12   35 1
    24   13   14 1
    25   14   36 1
    26   14   37 1
    27   15   16 1
    28   15   38 1
    29   15   39 1
    30   16   17 1
    31   17   18 2
    32   17   19 1
    33   17   20 1
    34   20   21 1
    35   21   22 2
    36   21   23 1
    37   21   24 1
    38   24   25 1
    39   25   26 2
    40   25   27 1
    41   25   28 1
    42   29   40 1
    43   29   41 1
@<TRIPOS>MOLECULE
CHEMBL72472__15
   42    44     0     0     0
SMALL
USER_CHARGES

@<TRIPOS>ATOM
      1 C1         -0.0158    1.3119    0.0093 C.ar      1 <0>         0.3523
      2 N1          1.0888    2.0360    0.0026 N.ar      1 <0>        -0.5990
      3 C2          2.2875    1.4625   -0.0119 C.ar      1 <0>         0.5050
      4 C3          2.3582    0.0588   -0.0202 C.ar      1 <0>        -0.1074
      5 C4          1.1547   -0.6659   -0.0126 C.ar      1 <0>         0.2957
      6 N2          0.0021   -0.0041    0.0020 N.ar      1 <0>        -0.5532
      7 N3          1.5110   -1.9908   -0.0227 N.pl3     1 <0>        -0.4568
      8 C5          2.8729   -2.0476   -0.0358 C.2       1 <0>         0.2686
      9 N4          3.3680   -0.8441   -0.0343 N.2       1 <0>        -0.4687
     10 C6          0.5956   -3.1347   -0.0195 C.3       1 <0>         0.1040
     11 C7          0.8983   -4.0675    1.1783 C.3       1 <0>        -0.1598
     12 C8          0.7408   -5.4727    0.5434 C.3       1 <0>         0.0764
     13 O1          1.2780   -5.3037   -0.7861 O.3       1 <0>        -0.3441
     14 C9          0.8347   -4.0202   -1.2578 C.3       1 <0>         0.0357
     15 C10         1.5504   -6.5103    1.3237 C.3       1 <0>         0.1390
     16 O2          1.2968   -7.8116    0.7905 O.3       1 <0>        -0.7635
     17 P1          1.9837   -9.1466    1.3719 P.3       1 <0>         2.2883
     18 O3          3.5198   -8.9811    1.3632 O.2       1 <0>        -1.0996
     19 O4          1.4997   -9.3864    2.8194 O.3       1 <0>        -1.1117
     20 O5          1.5742  -10.4042    0.4538 O.3       1 <0>        -1.0977
     21 P2          2.1366  -11.9046    0.2971 P.3       1 <0>         2.3468
     22 O6          3.6801  -11.8856    0.3629 O.2       1 <0>        -1.0967
     23 O7          1.5833  -12.7841    1.4404 O.3       1 <0>        -1.1170
     24 O8          1.6673  -12.5084   -1.1197 O.3       1 <0>        -1.0975
     25 P3          2.1202  -13.7785   -1.9994 P.3       1 <0>         2.2697
     26 O9          3.6572  -13.9236   -1.9412 O.2       1 <0>        -1.1072
     27 O10         1.4605  -15.0569   -1.4358 O.3       1 <0>        -1.1202
     28 O11         1.6587  -13.5653   -3.5271 O.3       1 <0>        -0.9092
     29 N5          3.4393    2.2295   -0.0193 N.pl3     1 <0>        -0.8223
     30 H1         -0.9693    1.8187    0.0257 H         1 <0>         0.2006
     31 H2          3.4551   -2.9572   -0.0459 H         1 <0>         0.2284
     32 H3         -0.4393   -2.7939    0.0117 H         1 <0>         0.1243
     33 H4          1.9148   -3.9166    1.5417 H         1 <0>         0.0940
     34 H5          0.1742   -3.9193    1.9794 H         1 <0>         0.0988
     35 H6         -0.3101   -5.7584    0.4993 H         1 <0>         0.0873
     36 H7         -0.0934   -4.1317   -1.8185 H         1 <0>         0.0751
     37 H8          1.6011   -3.5731   -1.8908 H         1 <0>         0.0884
     38 H9          2.6128   -6.2827    1.2365 H         1 <0>         0.0629
     39 H10         1.2583   -6.4845    2.3735 H         1 <0>         0.0665
     40 H11         1.8991  -14.2937   -4.1159 H         1 <0>         0.3994
     41 H12         3.3774    3.1975   -0.0138 H         1 <0>         0.4060
     42 H13         4.3085    1.7992   -0.0299 H         1 <0>         0.4185
@<TRIPOS>BOND
     1    1    6 ar
     2    1    2 ar
     3    1   30 1
     4    2    3 ar
     5    3    4 ar
     6    3   29 1
     7    4    9 1
     8    4    5 ar
     9    5    6 ar
    10    5    7 1
    11    7    8 1
    12    7   10 1
    13    8    9 2
    14    8   31 1
    15   10   14 1
    16   10   11 1
    17   10   32 1
    18   11   12 1
    19   11   33 1
    20   11   34 1
    21   12   13 1
    22   12   15 1
    23   12   35 1
    24   13   14 1
    25   14   36 1
    26   14   37 1
    27   15   16 1
    28   15   38 1
    29   15   39 1
    30   16   17 1
    31   17   18 2
    32   17   19 1
    33   17   20 1
    34   20   21 1
    35   21   22 2
    36   21   23 1
    37   21   24 1
    38   24   25 1
    39   25   26 2
    40   25   27 1
    41   25   28 1
    42   28   40 1
    43   29   41 1
    44   29   42 1
@<TRIPOS>MOLECULE
CHEMBL72472__16
   41    43     0     0     0
SMALL
USER_CHARGES

@<TRIPOS>ATOM
      1 C1         -0.0158    1.3119    0.0093 C.ar      1 <0>         0.3519
      2 N1          1.0888    2.0360    0.0026 N.ar      1 <0>        -0.5992
      3 C2          2.2875    1.4625   -0.0119 C.ar      1 <0>         0.5036
      4 C3          2.3582    0.0588   -0.0202 C.ar      1 <0>        -0.1074
      5 C4          1.1547   -0.6659   -0.0126 C.ar      1 <0>         0.2976
      6 N2          0.0021   -0.0041    0.0020 N.ar      1 <0>        -0.5494
      7 N3          1.5110   -1.9908   -0.0227 N.pl3     1 <0>        -0.4520
      8 C5          2.8729   -2.0476   -0.0358 C.2       1 <0>         0.2667
      9 N4          3.3680   -0.8441   -0.0343 N.2       1 <0>        -0.4707
     10 C6          0.5956   -3.1347   -0.0195 C.3       1 <0>         0.1008
     11 C7          0.9002   -4.0896   -1.2058 C.3       1 <0>        -0.1585
     12 C8          0.4085   -5.4411   -0.6291 C.3       1 <0>         0.0797
     13 O1          0.7491   -5.3999    0.7658 O.3       1 <0>        -0.3448
     14 C9          0.8521   -4.0402    1.2043 C.3       1 <0>         0.0435
     15 C10         1.1259   -6.6044   -1.3168 C.3       1 <0>         0.1350
     16 O2          0.5776   -7.8412   -0.8564 O.3       1 <0>        -0.7600
     17 P1          1.0959   -9.2758   -1.3714 P.3       1 <0>         2.2908
     18 O3          1.0162   -9.3290   -2.9134 O.2       1 <0>        -1.1063
     19 O4          2.5597   -9.4857   -0.9238 O.3       1 <0>        -1.1176
     20 O5          0.1718  -10.4364   -0.7459 O.3       1 <0>        -1.0975
     21 P2         -0.0445  -11.9962   -1.0811 P.3       1 <0>         2.3457
     22 O6         -0.0534  -12.1975   -2.6129 O.2       1 <0>        -1.1163
     23 O7          1.1051  -12.8207   -0.4600 O.3       1 <0>        -1.1403
     24 O8         -1.4495  -12.4872   -0.4671 O.3       1 <0>        -1.1051
     25 P3         -2.3775  -13.7831   -0.6942 P.3       1 <0>         2.2213
     26 O9         -2.3974  -14.1508   -2.2170 O.2       1 <0>        -1.1974
     27 O10        -1.8024  -14.9875    0.1263 O.3       1 <0>        -1.2116
     28 O11        -3.8356  -13.4722   -0.2129 O.3       1 <0>        -1.2132
     29 N5          3.4393    2.2295   -0.0193 N.pl3     1 <0>        -0.8239
     30 H1         -0.9693    1.8187    0.0257 H         1 <0>         0.2010
     31 H2          3.4551   -2.9572   -0.0459 H         1 <0>         0.2272
     32 H3         -0.4413   -2.7996   -0.0436 H         1 <0>         0.1279
     33 H4          0.3302   -3.8099   -2.0917 H         1 <0>         0.0999
     34 H5          1.9683   -4.1199   -1.4214 H         1 <0>         0.0935
     35 H6         -0.6704   -5.5349   -0.7525 H         1 <0>         0.0911
     36 H7          1.8506   -3.8537    1.5995 H         1 <0>         0.0722
     37 H8          0.1057   -3.8422    1.9736 H         1 <0>         0.0770
     38 H9          0.9921   -6.5270   -2.3957 H         1 <0>         0.0671
     39 H10         2.1890   -6.5673   -1.0789 H         1 <0>         0.0549
     40 H11         3.3774    3.1975   -0.0138 H         1 <0>         0.4051
     41 H12         4.3085    1.7992   -0.0299 H         1 <0>         0.4175
@<TRIPOS>BOND
     1    1    6 ar
     2    1    2 ar
     3    1   30 1
     4    2    3 ar
     5    3    4 ar
     6    3   29 1
     7    4    9 1
     8    4    5 ar
     9    5    6 ar
    10    5    7 1
    11    7    8 1
    12    7   10 1
    13    8    9 2
    14    8   31 1
    15   10   14 1
    16   10   11 1
    17   10   32 1
    18   11   12 1
    19   11   33 1
    20   11   34 1
    21   12   13 1
    22   12   15 1
    23   12   35 1
    24   13   14 1
    25   14   36 1
    26   14   37 1
    27   15   16 1
    28   15   38 1
    29   15   39 1
    30   16   17 1
    31   17   18 2
    32   17   19 1
    33   17   20 1
    34   20   21 1
    35   21   22 2
    36   21   23 1
    37   21   24 1
    38   24   25 1
    39   25   26 2
    40   25   27 1
    41   25   28 1
    42   29   40 1
    43   29   41 1
@<TRIPOS>MOLECULE
CHEMBL72472__17
   42    44     0     0     0
SMALL
USER_CHARGES

@<TRIPOS>ATOM
      1 C1         -0.0158    1.3119    0.0093 C.ar      1 <0>         0.3546
      2 N1          1.0888    2.0360    0.0026 N.ar      1 <0>        -0.5981
      3 C2          2.2875    1.4625   -0.0119 C.ar      1 <0>         0.5053
      4 C3          2.3582    0.0588   -0.0202 C.ar      1 <0>        -0.1081
      5 C4          1.1547   -0.6659   -0.0126 C.ar      1 <0>         0.2986
      6 N2          0.0021   -0.0041    0.0020 N.ar      1 <0>        -0.5523
      7 N3          1.5110   -1.9908   -0.0227 N.pl3     1 <0>        -0.4544
      8 C5          2.8729   -2.0476   -0.0358 C.2       1 <0>         0.2641
      9 N4          3.3680   -0.8441   -0.0343 N.2       1 <0>        -0.4678
     10 C6          0.5956   -3.1347   -0.0195 C.3       1 <0>         0.1027
     11 C7          0.9002   -4.0896   -1.2058 C.3       1 <0>        -0.1595
     12 C8          0.4085   -5.4411   -0.6291 C.3       1 <0>         0.0804
     13 O1          0.7491   -5.3999    0.7658 O.3       1 <0>        -0.3473
     14 C9          0.8521   -4.0402    1.2043 C.3       1 <0>         0.0431
     15 C10         1.1259   -6.6044   -1.3168 C.3       1 <0>         0.1349
     16 O2          0.5776   -7.8412   -0.8564 O.3       1 <0>        -0.7627
     17 P1          1.0959   -9.2758   -1.3714 P.3       1 <0>         2.2886
     18 O3          1.0162   -9.3290   -2.9134 O.2       1 <0>        -1.1016
     19 O4          2.5597   -9.4857   -0.9238 O.3       1 <0>        -1.1106
     20 O5          0.1718  -10.4364   -0.7459 O.3       1 <0>        -1.0976
     21 P2         -0.0445  -11.9962   -1.0811 P.3       1 <0>         2.3468
     22 O6         -0.0534  -12.1975   -2.6129 O.2       1 <0>        -1.0971
     23 O7          1.1051  -12.8207   -0.4600 O.3       1 <0>        -1.1168
     24 O8         -1.4495  -12.4872   -0.4671 O.3       1 <0>        -1.0975
     25 P3         -2.3775  -13.7831   -0.6942 P.3       1 <0>         2.2695
     26 O9         -2.3971  -14.1457   -2.1960 O.2       1 <0>        -1.1073
     27 O10        -1.8103  -14.9708    0.1149 O.3       1 <0>        -1.1201
     28 O11        -3.8759  -13.4636   -0.1996 O.3       1 <0>        -0.9092
     29 N5          3.4393    2.2295   -0.0193 N.pl3     1 <0>        -0.8223
     30 H1         -0.9693    1.8187    0.0257 H         1 <0>         0.2017
     31 H2          3.4551   -2.9572   -0.0459 H         1 <0>         0.2266
     32 H3         -0.4413   -2.7996   -0.0436 H         1 <0>         0.1275
     33 H4          0.3302   -3.8099   -2.0917 H         1 <0>         0.1003
     34 H5          1.9683   -4.1199   -1.4214 H         1 <0>         0.0945
     35 H6         -0.6704   -5.5349   -0.7525 H         1 <0>         0.0891
     36 H7          1.8506   -3.8537    1.5995 H         1 <0>         0.0741
     37 H8          0.1057   -3.8422    1.9736 H         1 <0>         0.0777
     38 H9          0.9921   -6.5270   -2.3957 H         1 <0>         0.0686
     39 H10         2.1890   -6.5673   -1.0789 H         1 <0>         0.0578
     40 H11        -4.4913  -14.2017   -0.3069 H         1 <0>         0.3995
     41 H12         3.3774    3.1975   -0.0138 H         1 <0>         0.4064
     42 H13         4.3085    1.7992   -0.0299 H         1 <0>         0.4181
@<TRIPOS>BOND
     1    1    6 ar
     2    1    2 ar
     3    1   30 1
     4    2    3 ar
     5    3    4 ar
     6    3   29 1
     7    4    9 1
     8    4    5 ar
     9    5    6 ar
    10    5    7 1
    11    7    8 1
    12    7   10 1
    13    8    9 2
    14    8   31 1
    15   10   14 1
    16   10   11 1
    17   10   32 1
    18   11   12 1
    19   11   33 1
    20   11   34 1
    21   12   13 1
    22   12   15 1
    23   12   35 1
    24   13   14 1
    25   14   36 1
    26   14   37 1
    27   15   16 1
    28   15   38 1
    29   15   39 1
    30   16   17 1
    31   17   18 2
    32   17   19 1
    33   17   20 1
    34   20   21 1
    35   21   22 2
    36   21   23 1
    37   21   24 1
    38   24   25 1
    39   25   26 2
    40   25   27 1
    41   25   28 1
    42   28   40 1
    43   29   41 1
    44   29   42 1
@<TRIPOS>MOLECULE
CHEMBL72472__18
   41    43     0     0     0
SMALL
USER_CHARGES

@<TRIPOS>ATOM
      1 C1         -0.0158    1.3119    0.0093 C.ar      1 <0>         0.3519
      2 N1          1.0888    2.0360    0.0026 N.ar      1 <0>        -0.5992
      3 C2          2.2875    1.4625   -0.0119 C.ar      1 <0>         0.5036
      4 C3          2.3582    0.0588   -0.0202 C.ar      1 <0>        -0.1074
      5 C4          1.1547   -0.6659   -0.0126 C.ar      1 <0>         0.2976
      6 N2          0.0021   -0.0041    0.0020 N.ar      1 <0>        -0.5494
      7 N3          1.5110   -1.9908   -0.0227 N.pl3     1 <0>        -0.4520
      8 C5          2.8729   -2.0476   -0.0358 C.2       1 <0>         0.2667
      9 N4          3.3680   -0.8441   -0.0343 N.2       1 <0>        -0.4707
     10 C6          0.5956   -3.1347   -0.0195 C.3       1 <0>         0.1008
     11 C7          0.9002   -4.0896   -1.2058 C.3       1 <0>        -0.1585
     12 C8          0.4085   -5.4411   -0.6291 C.3       1 <0>         0.0797
     13 O1          0.7491   -5.3999    0.7658 O.3       1 <0>        -0.3448
     14 C9          0.8521   -4.0402    1.2043 C.3       1 <0>         0.0435
     15 C10         1.1259   -6.6044   -1.3168 C.3       1 <0>         0.1350
     16 O2          0.5776   -7.8412   -0.8564 O.3       1 <0>        -0.7600
     17 P1          1.0959   -9.2758   -1.3714 P.3       1 <0>         2.2908
     18 O3          1.0162   -9.3290   -2.9134 O.2       1 <0>        -1.1063
     19 O4          2.5597   -9.4857   -0.9238 O.3       1 <0>        -1.1176
     20 O5          0.1718  -10.4364   -0.7459 O.3       1 <0>        -1.0975
     21 P2         -0.0445  -11.9962   -1.0811 P.3       1 <0>         2.3457
     22 O6         -0.0534  -12.1975   -2.6129 O.2       1 <0>        -1.1163
     23 O7          1.1051  -12.8207   -0.4600 O.3       1 <0>        -1.1403
     24 O8         -1.4495  -12.4872   -0.4671 O.3       1 <0>        -1.1051
     25 P3         -2.3775  -13.7831   -0.6942 P.3       1 <0>         2.2213
     26 O9         -2.3974  -14.1508   -2.2170 O.2       1 <0>        -1.1974
     27 O10        -1.8024  -14.9875    0.1263 O.3       1 <0>        -1.2116
     28 O11        -3.8356  -13.4722   -0.2129 O.3       1 <0>        -1.2132
     29 N5          3.4393    2.2295   -0.0193 N.pl3     1 <0>        -0.8239
     30 H1         -0.9693    1.8187    0.0257 H         1 <0>         0.2010
     31 H2          3.4551   -2.9572   -0.0459 H         1 <0>         0.2272
     32 H3         -0.4413   -2.7996   -0.0436 H         1 <0>         0.1279
     33 H4          0.3302   -3.8099   -2.0917 H         1 <0>         0.0999
     34 H5          1.9683   -4.1199   -1.4214 H         1 <0>         0.0935
     35 H6         -0.6704   -5.5349   -0.7525 H         1 <0>         0.0911
     36 H7          1.8506   -3.8537    1.5995 H         1 <0>         0.0722
     37 H8          0.1057   -3.8422    1.9736 H         1 <0>         0.0770
     38 H9          0.9921   -6.5270   -2.3957 H         1 <0>         0.0671
     39 H10         2.1890   -6.5673   -1.0789 H         1 <0>         0.0549
     40 H11         3.3774    3.1975   -0.0138 H         1 <0>         0.4051
     41 H12         4.3085    1.7992   -0.0299 H         1 <0>         0.4175
@<TRIPOS>BOND
     1    1    6 ar
     2    1    2 ar
     3    1   30 1
     4    2    3 ar
     5    3    4 ar
     6    3   29 1
     7    4    9 1
     8    4    5 ar
     9    5    6 ar
    10    5    7 1
    11    7    8 1
    12    7   10 1
    13    8    9 2
    14    8   31 1
    15   10   14 1
    16   10   11 1
    17   10   32 1
    18   11   12 1
    19   11   33 1
    20   11   34 1
    21   12   13 1
    22   12   15 1
    23   12   35 1
    24   13   14 1
    25   14   36 1
    26   14   37 1
    27   15   16 1
    28   15   38 1
    29   15   39 1
    30   16   17 1
    31   17   18 2
    32   17   19 1
    33   17   20 1
    34   20   21 1
    35   21   22 2
    36   21   23 1
    37   21   24 1
    38   24   25 1
    39   25   26 2
    40   25   27 1
    41   25   28 1
    42   29   40 1
    43   29   41 1
@<TRIPOS>MOLECULE
CHEMBL72472__19
   42    44     0     0     0
SMALL
USER_CHARGES

@<TRIPOS>ATOM
      1 C1         -0.0158    1.3119    0.0093 C.ar      1 <0>         0.3546
      2 N1          1.0888    2.0360    0.0026 N.ar      1 <0>        -0.5981
      3 C2          2.2875    1.4625   -0.0119 C.ar      1 <0>         0.5053
      4 C3          2.3582    0.0588   -0.0202 C.ar      1 <0>        -0.1081
      5 C4          1.1547   -0.6659   -0.0126 C.ar      1 <0>         0.2986
      6 N2          0.0021   -0.0041    0.0020 N.ar      1 <0>        -0.5523
      7 N3          1.5110   -1.9908   -0.0227 N.pl3     1 <0>        -0.4544
      8 C5          2.8729   -2.0476   -0.0358 C.2       1 <0>         0.2641
      9 N4          3.3680   -0.8441   -0.0343 N.2       1 <0>        -0.4678
     10 C6          0.5956   -3.1347   -0.0195 C.3       1 <0>         0.1027
     11 C7          0.9002   -4.0896   -1.2058 C.3       1 <0>        -0.1595
     12 C8          0.4085   -5.4411   -0.6291 C.3       1 <0>         0.0804
     13 O1          0.7491   -5.3999    0.7658 O.3       1 <0>        -0.3473
     14 C9          0.8521   -4.0402    1.2043 C.3       1 <0>         0.0431
     15 C10         1.1259   -6.6044   -1.3168 C.3       1 <0>         0.1349
     16 O2          0.5776   -7.8412   -0.8564 O.3       1 <0>        -0.7627
     17 P1          1.0959   -9.2758   -1.3714 P.3       1 <0>         2.2886
     18 O3          1.0162   -9.3290   -2.9134 O.2       1 <0>        -1.1016
     19 O4          2.5597   -9.4857   -0.9238 O.3       1 <0>        -1.1106
     20 O5          0.1718  -10.4364   -0.7459 O.3       1 <0>        -1.0976
     21 P2         -0.0445  -11.9962   -1.0811 P.3       1 <0>         2.3468
     22 O6         -0.0534  -12.1975   -2.6129 O.2       1 <0>        -1.0971
     23 O7          1.1051  -12.8207   -0.4600 O.3       1 <0>        -1.1168
     24 O8         -1.4495  -12.4872   -0.4671 O.3       1 <0>        -1.0975
     25 P3         -2.3775  -13.7831   -0.6942 P.3       1 <0>         2.2695
     26 O9         -2.3971  -14.1457   -2.1960 O.2       1 <0>        -1.1073
     27 O10        -1.8103  -14.9708    0.1149 O.3       1 <0>        -1.1201
     28 O11        -3.8759  -13.4636   -0.1996 O.3       1 <0>        -0.9092
     29 N5          3.4393    2.2295   -0.0193 N.pl3     1 <0>        -0.8223
     30 H1         -0.9693    1.8187    0.0257 H         1 <0>         0.2017
     31 H2          3.4551   -2.9572   -0.0459 H         1 <0>         0.2266
     32 H3         -0.4413   -2.7996   -0.0436 H         1 <0>         0.1275
     33 H4          0.3302   -3.8099   -2.0917 H         1 <0>         0.1003
     34 H5          1.9683   -4.1199   -1.4214 H         1 <0>         0.0945
     35 H6         -0.6704   -5.5349   -0.7525 H         1 <0>         0.0891
     36 H7          1.8506   -3.8537    1.5995 H         1 <0>         0.0741
     37 H8          0.1057   -3.8422    1.9736 H         1 <0>         0.0777
     38 H9          0.9921   -6.5270   -2.3957 H         1 <0>         0.0686
     39 H10         2.1890   -6.5673   -1.0789 H         1 <0>         0.0578
     40 H11        -4.4913  -14.2017   -0.3069 H         1 <0>         0.3995
     41 H12         3.3774    3.1975   -0.0138 H         1 <0>         0.4064
     42 H13         4.3085    1.7992   -0.0299 H         1 <0>         0.4181
@<TRIPOS>BOND
     1    1    6 ar
     2    1    2 ar
     3    1   30 1
     4    2    3 ar
     5    3    4 ar
     6    3   29 1
     7    4    9 1
     8    4    5 ar
     9    5    6 ar
    10    5    7 1
    11    7    8 1
    12    7   10 1
    13    8    9 2
    14    8   31 1
    15   10   14 1
    16   10   11 1
    17   10   32 1
    18   11   12 1
    19   11   33 1
    20   11   34 1
    21   12   13 1
    22   12   15 1
    23   12   35 1
    24   13   14 1
    25   14   36 1
    26   14   37 1
    27   15   16 1
    28   15   38 1
    29   15   39 1
    30   16   17 1
    31   17   18 2
    32   17   19 1
    33   17   20 1
    34   20   21 1
    35   21   22 2
    36   21   23 1
    37   21   24 1
    38   24   25 1
    39   25   26 2
    40   25   27 1
    41   25   28 1
    42   28   40 1
    43   29   41 1
    44   29   42 1
@<TRIPOS>MOLECULE
CHEMBL72472__20
   41    43     0     0     0
SMALL
USER_CHARGES

@<TRIPOS>ATOM
      1 C1         -0.0158    1.3119    0.0093 C.ar      1 <0>         0.3519
      2 N1          1.0888    2.0360    0.0026 N.ar      1 <0>        -0.5992
      3 C2          2.2875    1.4625   -0.0119 C.ar      1 <0>         0.5036
      4 C3          2.3582    0.0588   -0.0202 C.ar      1 <0>        -0.1074
      5 C4          1.1547   -0.6659   -0.0126 C.ar      1 <0>         0.2976
      6 N2          0.0021   -0.0041    0.0020 N.ar      1 <0>        -0.5494
      7 N3          1.5110   -1.9908   -0.0227 N.pl3     1 <0>        -0.4520
      8 C5          2.8729   -2.0476   -0.0358 C.2       1 <0>         0.2667
      9 N4          3.3680   -0.8441   -0.0343 N.2       1 <0>        -0.4707
     10 C6          0.5956   -3.1347   -0.0195 C.3       1 <0>         0.1008
     11 C7          0.9002   -4.0896   -1.2058 C.3       1 <0>        -0.1585
     12 C8          0.4085   -5.4411   -0.6291 C.3       1 <0>         0.0797
     13 O1          0.7491   -5.3999    0.7658 O.3       1 <0>        -0.3448
     14 C9          0.8521   -4.0402    1.2043 C.3       1 <0>         0.0435
     15 C10         1.1259   -6.6044   -1.3168 C.3       1 <0>         0.1350
     16 O2          0.5776   -7.8412   -0.8564 O.3       1 <0>        -0.7600
     17 P1          1.0959   -9.2758   -1.3714 P.3       1 <0>         2.2908
     18 O3          1.0162   -9.3290   -2.9134 O.2       1 <0>        -1.1063
     19 O4          2.5597   -9.4857   -0.9238 O.3       1 <0>        -1.1176
     20 O5          0.1718  -10.4364   -0.7459 O.3       1 <0>        -1.0975
     21 P2         -0.0445  -11.9962   -1.0811 P.3       1 <0>         2.3457
     22 O6         -0.0534  -12.1975   -2.6129 O.2       1 <0>        -1.1163
     23 O7          1.1051  -12.8207   -0.4600 O.3       1 <0>        -1.1403
     24 O8         -1.4495  -12.4872   -0.4671 O.3       1 <0>        -1.1051
     25 P3         -2.3775  -13.7831   -0.6942 P.3       1 <0>         2.2213
     26 O9         -2.3974  -14.1508   -2.2170 O.2       1 <0>        -1.1974
     27 O10        -1.8024  -14.9875    0.1263 O.3       1 <0>        -1.2116
     28 O11        -3.8356  -13.4722   -0.2129 O.3       1 <0>        -1.2132
     29 N5          3.4393    2.2295   -0.0193 N.pl3     1 <0>        -0.8239
     30 H1         -0.9693    1.8187    0.0257 H         1 <0>         0.2010
     31 H2          3.4551   -2.9572   -0.0459 H         1 <0>         0.2272
     32 H3         -0.4413   -2.7996   -0.0436 H         1 <0>         0.1279
     33 H4          0.3302   -3.8099   -2.0917 H         1 <0>         0.0999
     34 H5          1.9683   -4.1199   -1.4214 H         1 <0>         0.0935
     35 H6         -0.6704   -5.5349   -0.7525 H         1 <0>         0.0911
     36 H7          1.8506   -3.8537    1.5995 H         1 <0>         0.0722
     37 H8          0.1057   -3.8422    1.9736 H         1 <0>         0.0770
     38 H9          0.9921   -6.5270   -2.3957 H         1 <0>         0.0671
     39 H10         2.1890   -6.5673   -1.0789 H         1 <0>         0.0549
     40 H11         3.3774    3.1975   -0.0138 H         1 <0>         0.4051
     41 H12         4.3085    1.7992   -0.0299 H         1 <0>         0.4175
@<TRIPOS>BOND
     1    1    6 ar
     2    1    2 ar
     3    1   30 1
     4    2    3 ar
     5    3    4 ar
     6    3   29 1
     7    4    9 1
     8    4    5 ar
     9    5    6 ar
    10    5    7 1
    11    7    8 1
    12    7   10 1
    13    8    9 2
    14    8   31 1
    15   10   14 1
    16   10   11 1
    17   10   32 1
    18   11   12 1
    19   11   33 1
    20   11   34 1
    21   12   13 1
    22   12   15 1
    23   12   35 1
    24   13   14 1
    25   14   36 1
    26   14   37 1
    27   15   16 1
    28   15   38 1
    29   15   39 1
    30   16   17 1
    31   17   18 2
    32   17   19 1
    33   17   20 1
    34   20   21 1
    35   21   22 2
    36   21   23 1
    37   21   24 1
    38   24   25 1
    39   25   26 2
    40   25   27 1
    41   25   28 1
    42   29   40 1
    43   29   41 1
@<TRIPOS>MOLECULE
CHEMBL72472__21
   42    44     0     0     0
SMALL
USER_CHARGES

@<TRIPOS>ATOM
      1 C1         -0.0158    1.3119    0.0093 C.ar      1 <0>         0.3546
      2 N1          1.0888    2.0360    0.0026 N.ar      1 <0>        -0.5981
      3 C2          2.2875    1.4625   -0.0119 C.ar      1 <0>         0.5053
      4 C3          2.3582    0.0588   -0.0202 C.ar      1 <0>        -0.1081
      5 C4          1.1547   -0.6659   -0.0126 C.ar      1 <0>         0.2986
      6 N2          0.0021   -0.0041    0.0020 N.ar      1 <0>        -0.5523
      7 N3          1.5110   -1.9908   -0.0227 N.pl3     1 <0>        -0.4544
      8 C5          2.8729   -2.0476   -0.0358 C.2       1 <0>         0.2641
      9 N4          3.3680   -0.8441   -0.0343 N.2       1 <0>        -0.4678
     10 C6          0.5956   -3.1347   -0.0195 C.3       1 <0>         0.1027
     11 C7          0.9002   -4.0896   -1.2058 C.3       1 <0>        -0.1595
     12 C8          0.4085   -5.4411   -0.6291 C.3       1 <0>         0.0804
     13 O1          0.7491   -5.3999    0.7658 O.3       1 <0>        -0.3473
     14 C9          0.8521   -4.0402    1.2043 C.3       1 <0>         0.0431
     15 C10         1.1259   -6.6044   -1.3168 C.3       1 <0>         0.1349
     16 O2          0.5776   -7.8412   -0.8564 O.3       1 <0>        -0.7627
     17 P1          1.0959   -9.2758   -1.3714 P.3       1 <0>         2.2886
     18 O3          1.0162   -9.3290   -2.9134 O.2       1 <0>        -1.1016
     19 O4          2.5597   -9.4857   -0.9238 O.3       1 <0>        -1.1106
     20 O5          0.1718  -10.4364   -0.7459 O.3       1 <0>        -1.0976
     21 P2         -0.0445  -11.9962   -1.0811 P.3       1 <0>         2.3468
     22 O6         -0.0534  -12.1975   -2.6129 O.2       1 <0>        -1.0971
     23 O7          1.1051  -12.8207   -0.4600 O.3       1 <0>        -1.1168
     24 O8         -1.4495  -12.4872   -0.4671 O.3       1 <0>        -1.0975
     25 P3         -2.3775  -13.7831   -0.6942 P.3       1 <0>         2.2695
     26 O9         -2.3971  -14.1457   -2.1960 O.2       1 <0>        -1.1073
     27 O10        -1.8103  -14.9708    0.1149 O.3       1 <0>        -1.1201
     28 O11        -3.8759  -13.4636   -0.1996 O.3       1 <0>        -0.9092
     29 N5          3.4393    2.2295   -0.0193 N.pl3     1 <0>        -0.8223
     30 H1         -0.9693    1.8187    0.0257 H         1 <0>         0.2017
     31 H2          3.4551   -2.9572   -0.0459 H         1 <0>         0.2266
     32 H3         -0.4413   -2.7996   -0.0436 H         1 <0>         0.1275
     33 H4          0.3302   -3.8099   -2.0917 H         1 <0>         0.1003
     34 H5          1.9683   -4.1199   -1.4214 H         1 <0>         0.0945
     35 H6         -0.6704   -5.5349   -0.7525 H         1 <0>         0.0891
     36 H7          1.8506   -3.8537    1.5995 H         1 <0>         0.0741
     37 H8          0.1057   -3.8422    1.9736 H         1 <0>         0.0777
     38 H9          0.9921   -6.5270   -2.3957 H         1 <0>         0.0686
     39 H10         2.1890   -6.5673   -1.0789 H         1 <0>         0.0578
     40 H11        -4.4913  -14.2017   -0.3069 H         1 <0>         0.3995
     41 H12         3.3774    3.1975   -0.0138 H         1 <0>         0.4064
     42 H13         4.3085    1.7992   -0.0299 H         1 <0>         0.4181
@<TRIPOS>BOND
     1    1    6 ar
     2    1    2 ar
     3    1   30 1
     4    2    3 ar
     5    3    4 ar
     6    3   29 1
     7    4    9 1
     8    4    5 ar
     9    5    6 ar
    10    5    7 1
    11    7    8 1
    12    7   10 1
    13    8    9 2
    14    8   31 1
    15   10   14 1
    16   10   11 1
    17   10   32 1
    18   11   12 1
    19   11   33 1
    20   11   34 1
    21   12   13 1
    22   12   15 1
    23   12   35 1
    24   13   14 1
    25   14   36 1
    26   14   37 1
    27   15   16 1
    28   15   38 1
    29   15   39 1
    30   16   17 1
    31   17   18 2
    32   17   19 1
    33   17   20 1
    34   20   21 1
    35   21   22 2
    36   21   23 1
    37   21   24 1
    38   24   25 1
    39   25   26 2
    40   25   27 1
    41   25   28 1
    42   28   40 1
    43   29   41 1
    44   29   42 1
@<TRIPOS>MOLECULE
CHEMBL72472__22
   41    43     0     0     0
SMALL
USER_CHARGES

@<TRIPOS>ATOM
      1 C1         -0.0158    1.3119    0.0093 C.ar      1 <0>         0.3519
      2 N1          1.0888    2.0360    0.0026 N.ar      1 <0>        -0.5992
      3 C2          2.2875    1.4625   -0.0119 C.ar      1 <0>         0.5036
      4 C3          2.3582    0.0588   -0.0202 C.ar      1 <0>        -0.1074
      5 C4          1.1547   -0.6659   -0.0126 C.ar      1 <0>         0.2976
      6 N2          0.0021   -0.0041    0.0020 N.ar      1 <0>        -0.5494
      7 N3          1.5110   -1.9908   -0.0227 N.pl3     1 <0>        -0.4520
      8 C5          2.8729   -2.0476   -0.0358 C.2       1 <0>         0.2667
      9 N4          3.3680   -0.8441   -0.0343 N.2       1 <0>        -0.4707
     10 C6          0.5956   -3.1347   -0.0195 C.3       1 <0>         0.1008
     11 C7          0.9002   -4.0896   -1.2058 C.3       1 <0>        -0.1585
     12 C8          0.4085   -5.4411   -0.6291 C.3       1 <0>         0.0797
     13 O1          0.7491   -5.3999    0.7658 O.3       1 <0>        -0.3448
     14 C9          0.8521   -4.0402    1.2043 C.3       1 <0>         0.0435
     15 C10         1.1259   -6.6044   -1.3168 C.3       1 <0>         0.1350
     16 O2          0.5776   -7.8412   -0.8564 O.3       1 <0>        -0.7600
     17 P1          1.0959   -9.2758   -1.3714 P.3       1 <0>         2.2908
     18 O3          1.0162   -9.3290   -2.9134 O.2       1 <0>        -1.1063
     19 O4          2.5597   -9.4857   -0.9238 O.3       1 <0>        -1.1176
     20 O5          0.1718  -10.4364   -0.7459 O.3       1 <0>        -1.0975
     21 P2         -0.0445  -11.9962   -1.0811 P.3       1 <0>         2.3457
     22 O6         -0.0534  -12.1975   -2.6129 O.2       1 <0>        -1.1163
     23 O7          1.1051  -12.8207   -0.4600 O.3       1 <0>        -1.1403
     24 O8         -1.4495  -12.4872   -0.4671 O.3       1 <0>        -1.1051
     25 P3         -2.3775  -13.7831   -0.6942 P.3       1 <0>         2.2213
     26 O9         -2.3974  -14.1508   -2.2170 O.2       1 <0>        -1.1974
     27 O10        -1.8024  -14.9875    0.1263 O.3       1 <0>        -1.2116
     28 O11        -3.8356  -13.4722   -0.2129 O.3       1 <0>        -1.2132
     29 N5          3.4393    2.2295   -0.0193 N.pl3     1 <0>        -0.8239
     30 H1         -0.9693    1.8187    0.0257 H         1 <0>         0.2010
     31 H2          3.4551   -2.9572   -0.0459 H         1 <0>         0.2272
     32 H3         -0.4413   -2.7996   -0.0436 H         1 <0>         0.1279
     33 H4          0.3302   -3.8099   -2.0917 H         1 <0>         0.0999
     34 H5          1.9683   -4.1199   -1.4214 H         1 <0>         0.0935
     35 H6         -0.6704   -5.5349   -0.7525 H         1 <0>         0.0911
     36 H7          1.8506   -3.8537    1.5995 H         1 <0>         0.0722
     37 H8          0.1057   -3.8422    1.9736 H         1 <0>         0.0770
     38 H9          0.9921   -6.5270   -2.3957 H         1 <0>         0.0671
     39 H10         2.1890   -6.5673   -1.0789 H         1 <0>         0.0549
     40 H11         3.3774    3.1975   -0.0138 H         1 <0>         0.4051
     41 H12         4.3085    1.7992   -0.0299 H         1 <0>         0.4175
@<TRIPOS>BOND
     1    1    6 ar
     2    1    2 ar
     3    1   30 1
     4    2    3 ar
     5    3    4 ar
     6    3   29 1
     7    4    9 1
     8    4    5 ar
     9    5    6 ar
    10    5    7 1
    11    7    8 1
    12    7   10 1
    13    8    9 2
    14    8   31 1
    15   10   14 1
    16   10   11 1
    17   10   32 1
    18   11   12 1
    19   11   33 1
    20   11   34 1
    21   12   13 1
    22   12   15 1
    23   12   35 1
    24   13   14 1
    25   14   36 1
    26   14   37 1
    27   15   16 1
    28   15   38 1
    29   15   39 1
    30   16   17 1
    31   17   18 2
    32   17   19 1
    33   17   20 1
    34   20   21 1
    35   21   22 2
    36   21   23 1
    37   21   24 1
    38   24   25 1
    39   25   26 2
    40   25   27 1
    41   25   28 1
    42   29   40 1
    43   29   41 1
@<TRIPOS>MOLECULE
CHEMBL72472__23
   42    44     0     0     0
SMALL
USER_CHARGES

@<TRIPOS>ATOM
      1 C1         -0.0158    1.3119    0.0093 C.ar      1 <0>         0.3546
      2 N1          1.0888    2.0360    0.0026 N.ar      1 <0>        -0.5981
      3 C2          2.2875    1.4625   -0.0119 C.ar      1 <0>         0.5053
      4 C3          2.3582    0.0588   -0.0202 C.ar      1 <0>        -0.1081
      5 C4          1.1547   -0.6659   -0.0126 C.ar      1 <0>         0.2986
      6 N2          0.0021   -0.0041    0.0020 N.ar      1 <0>        -0.5523
      7 N3          1.5110   -1.9908   -0.0227 N.pl3     1 <0>        -0.4544
      8 C5          2.8729   -2.0476   -0.0358 C.2       1 <0>         0.2641
      9 N4          3.3680   -0.8441   -0.0343 N.2       1 <0>        -0.4678
     10 C6          0.5956   -3.1347   -0.0195 C.3       1 <0>         0.1027
     11 C7          0.9002   -4.0896   -1.2058 C.3       1 <0>        -0.1595
     12 C8          0.4085   -5.4411   -0.6291 C.3       1 <0>         0.0804
     13 O1          0.7491   -5.3999    0.7658 O.3       1 <0>        -0.3473
     14 C9          0.8521   -4.0402    1.2043 C.3       1 <0>         0.0431
     15 C10         1.1259   -6.6044   -1.3168 C.3       1 <0>         0.1349
     16 O2          0.5776   -7.8412   -0.8564 O.3       1 <0>        -0.7627
     17 P1          1.0959   -9.2758   -1.3714 P.3       1 <0>         2.2886
     18 O3          1.0162   -9.3290   -2.9134 O.2       1 <0>        -1.1016
     19 O4          2.5597   -9.4857   -0.9238 O.3       1 <0>        -1.1106
     20 O5          0.1718  -10.4364   -0.7459 O.3       1 <0>        -1.0976
     21 P2         -0.0445  -11.9962   -1.0811 P.3       1 <0>         2.3468
     22 O6         -0.0534  -12.1975   -2.6129 O.2       1 <0>        -1.0971
     23 O7          1.1051  -12.8207   -0.4600 O.3       1 <0>        -1.1168
     24 O8         -1.4495  -12.4872   -0.4671 O.3       1 <0>        -1.0975
     25 P3         -2.3775  -13.7831   -0.6942 P.3       1 <0>         2.2695
     26 O9         -2.3971  -14.1457   -2.1960 O.2       1 <0>        -1.1073
     27 O10        -1.8103  -14.9708    0.1149 O.3       1 <0>        -1.1201
     28 O11        -3.8759  -13.4636   -0.1996 O.3       1 <0>        -0.9092
     29 N5          3.4393    2.2295   -0.0193 N.pl3     1 <0>        -0.8223
     30 H1         -0.9693    1.8187    0.0257 H         1 <0>         0.2017
     31 H2          3.4551   -2.9572   -0.0459 H         1 <0>         0.2266
     32 H3         -0.4413   -2.7996   -0.0436 H         1 <0>         0.1275
     33 H4          0.3302   -3.8099   -2.0917 H         1 <0>         0.1003
     34 H5          1.9683   -4.1199   -1.4214 H         1 <0>         0.0945
     35 H6         -0.6704   -5.5349   -0.7525 H         1 <0>         0.0891
     36 H7          1.8506   -3.8537    1.5995 H         1 <0>         0.0741
     37 H8          0.1057   -3.8422    1.9736 H         1 <0>         0.0777
     38 H9          0.9921   -6.5270   -2.3957 H         1 <0>         0.0686
     39 H10         2.1890   -6.5673   -1.0789 H         1 <0>         0.0578
     40 H11        -4.4913  -14.2017   -0.3069 H         1 <0>         0.3995
     41 H12         3.3774    3.1975   -0.0138 H         1 <0>         0.4064
     42 H13         4.3085    1.7992   -0.0299 H         1 <0>         0.4181
@<TRIPOS>BOND
     1    1    6 ar
     2    1    2 ar
     3    1   30 1
     4    2    3 ar
     5    3    4 ar
     6    3   29 1
     7    4    9 1
     8    4    5 ar
     9    5    6 ar
    10    5    7 1
    11    7    8 1
    12    7   10 1
    13    8    9 2
    14    8   31 1
    15   10   14 1
    16   10   11 1
    17   10   32 1
    18   11   12 1
    19   11   33 1
    20   11   34 1
    21   12   13 1
    22   12   15 1
    23   12   35 1
    24   13   14 1
    25   14   36 1
    26   14   37 1
    27   15   16 1
    28   15   38 1
    29   15   39 1
    30   16   17 1
    31   17   18 2
    32   17   19 1
    33   17   20 1
    34   20   21 1
    35   21   22 2
    36   21   23 1
    37   21   24 1
    38   24   25 1
    39   25   26 2
    40   25   27 1
    41   25   28 1
    42   28   40 1
    43   29   41 1
    44   29   42 1
@<TRIPOS>MOLECULE
CHEMBL72472__24
   41    43     0     0     0
SMALL
USER_CHARGES

@<TRIPOS>ATOM
      1 C1         -0.0158    1.3119    0.0093 C.ar      1 <0>         0.3489
      2 N1          1.0888    2.0360    0.0026 N.ar      1 <0>        -0.6006
      3 C2          2.2875    1.4625   -0.0119 C.ar      1 <0>         0.5044
      4 C3          2.3582    0.0588   -0.0202 C.ar      1 <0>        -0.1065
      5 C4          1.1547   -0.6659   -0.0126 C.ar      1 <0>         0.2952
      6 N2          0.0021   -0.0041    0.0020 N.ar      1 <0>        -0.5510
      7 N3          1.5110   -1.9908   -0.0227 N.pl3     1 <0>        -0.4554
      8 C5          2.8729   -2.0476   -0.0358 C.2       1 <0>         0.2690
      9 N4          3.3680   -0.8441   -0.0343 N.2       1 <0>        -0.4688
     10 C6          0.5956   -3.1347   -0.0195 C.3       1 <0>         0.1019
     11 C7          0.8748   -4.0554   -1.2323 C.3       1 <0>        -0.1593
     12 C8          1.7649   -5.1582   -0.6046 C.3       1 <0>         0.0709
     13 O1          1.1994   -5.3390    0.7115 O.3       1 <0>        -0.3368
     14 C9          0.8587   -4.0326    1.2049 C.3       1 <0>         0.0358
     15 C10         1.6700   -6.4529   -1.4143 C.3       1 <0>         0.1384
     16 O2          2.5855   -7.4140   -0.8849 O.3       1 <0>        -0.7612
     17 P1          2.7527   -8.8946   -1.4948 P.3       1 <0>         2.2906
     18 O3          1.3770   -9.5972   -1.5255 O.2       1 <0>        -1.1046
     19 O4          3.3146   -8.7996   -2.9308 O.3       1 <0>        -1.1186
     20 O5          3.7677   -9.7420   -0.5762 O.3       1 <0>        -1.0976
     21 P2          4.1164  -11.3084   -0.4463 P.3       1 <0>         2.3457
     22 O6          2.8161  -12.1360   -0.5528 O.2       1 <0>        -1.1160
     23 O7          5.0814  -11.7170   -1.5816 O.3       1 <0>        -1.1404
     24 O8          4.8144  -11.5865    0.9776 O.3       1 <0>        -1.1050
     25 P3          5.1157  -12.9156    1.8349 P.3       1 <0>         2.2216
     26 O9          3.8937  -13.8906    1.7334 O.2       1 <0>        -1.1974
     27 O10         6.3955  -13.6217    1.2710 O.3       1 <0>        -1.2118
     28 O11         5.3511  -12.5276    3.3344 O.3       1 <0>        -1.2132
     29 N5          3.4393    2.2295   -0.0193 N.pl3     1 <0>        -0.8231
     30 H1         -0.9693    1.8187    0.0257 H         1 <0>         0.1995
     31 H2          3.4551   -2.9572   -0.0459 H         1 <0>         0.2265
     32 H3         -0.4396   -2.7937   -0.0272 H         1 <0>         0.1259
     33 H4         -0.0516   -4.4779   -1.6213 H         1 <0>         0.1082
     34 H5          1.4136   -3.5181   -2.0128 H         1 <0>         0.0921
     35 H6          2.7997   -4.8228   -0.5349 H         1 <0>         0.0796
     36 H7          1.6860   -3.6296    1.7891 H         1 <0>         0.0637
     37 H8         -0.0386   -4.0914    1.8210 H         1 <0>         0.0989
     38 H9          0.6552   -6.8460   -1.3534 H         1 <0>         0.0630
     39 H10         1.9189   -6.2492   -2.4557 H         1 <0>         0.0637
     40 H11         3.3774    3.1975   -0.0138 H         1 <0>         0.4049
     41 H12         4.3085    1.7992   -0.0299 H         1 <0>         0.4187
@<TRIPOS>BOND
     1    1    6 ar
     2    1    2 ar
     3    1   30 1
     4    2    3 ar
     5    3    4 ar
     6    3   29 1
     7    4    9 1
     8    4    5 ar
     9    5    6 ar
    10    5    7 1
    11    7    8 1
    12    7   10 1
    13    8    9 2
    14    8   31 1
    15   10   14 1
    16   10   11 1
    17   10   32 1
    18   11   12 1
    19   11   33 1
    20   11   34 1
    21   12   13 1
    22   12   15 1
    23   12   35 1
    24   13   14 1
    25   14   36 1
    26   14   37 1
    27   15   16 1
    28   15   38 1
    29   15   39 1
    30   16   17 1
    31   17   18 2
    32   17   19 1
    33   17   20 1
    34   20   21 1
    35   21   22 2
    36   21   23 1
    37   21   24 1
    38   24   25 1
    39   25   26 2
    40   25   27 1
    41   25   28 1
    42   29   40 1
    43   29   41 1
@<TRIPOS>MOLECULE
CHEMBL72472__25
   42    44     0     0     0
SMALL
USER_CHARGES

@<TRIPOS>ATOM
      1 C1         -0.0158    1.3119    0.0093 C.ar      1 <0>         0.3528
      2 N1          1.0888    2.0360    0.0026 N.ar      1 <0>        -0.5990
      3 C2          2.2875    1.4625   -0.0119 C.ar      1 <0>         0.5057
      4 C3          2.3582    0.0588   -0.0202 C.ar      1 <0>        -0.1078
      5 C4          1.1547   -0.6659   -0.0126 C.ar      1 <0>         0.2972
      6 N2          0.0021   -0.0041    0.0020 N.ar      1 <0>        -0.5529
      7 N3          1.5110   -1.9908   -0.0227 N.pl3     1 <0>        -0.4573
      8 C5          2.8729   -2.0476   -0.0358 C.2       1 <0>         0.2646
      9 N4          3.3680   -0.8441   -0.0343 N.2       1 <0>        -0.4668
     10 C6          0.5956   -3.1347   -0.0195 C.3       1 <0>         0.1029
     11 C7          0.8748   -4.0554   -1.2323 C.3       1 <0>        -0.1600
     12 C8          1.7649   -5.1582   -0.6046 C.3       1 <0>         0.0714
     13 O1          1.1994   -5.3390    0.7115 O.3       1 <0>        -0.3409
     14 C9          0.8587   -4.0326    1.2049 C.3       1 <0>         0.0364
     15 C10         1.6700   -6.4529   -1.4143 C.3       1 <0>         0.1387
     16 O2          2.5855   -7.4140   -0.8849 O.3       1 <0>        -0.7639
     17 P1          2.7527   -8.8946   -1.4948 P.3       1 <0>         2.2884
     18 O3          1.3770   -9.5972   -1.5255 O.2       1 <0>        -1.0999
     19 O4          3.3146   -8.7996   -2.9308 O.3       1 <0>        -1.1116
     20 O5          3.7677   -9.7420   -0.5762 O.3       1 <0>        -1.0977
     21 P2          4.1164  -11.3084   -0.4463 P.3       1 <0>         2.3468
     22 O6          2.8161  -12.1360   -0.5528 O.2       1 <0>        -1.0968
     23 O7          5.0814  -11.7170   -1.5816 O.3       1 <0>        -1.1170
     24 O8          4.8144  -11.5865    0.9776 O.3       1 <0>        -1.0975
     25 P3          5.1157  -12.9156    1.8349 P.3       1 <0>         2.2697
     26 O9          3.9106  -13.8772    1.7348 O.2       1 <0>        -1.1072
     27 O10         6.3778  -13.6120    1.2788 O.3       1 <0>        -1.1202
     28 O11         5.3576  -12.5169    3.3758 O.3       1 <0>        -0.9091
     29 N5          3.4393    2.2295   -0.0193 N.pl3     1 <0>        -0.8220
     30 H1         -0.9693    1.8187    0.0257 H         1 <0>         0.2009
     31 H2          3.4551   -2.9572   -0.0459 H         1 <0>         0.2245
     32 H3         -0.4396   -2.7937   -0.0272 H         1 <0>         0.1269
     33 H4         -0.0516   -4.4779   -1.6213 H         1 <0>         0.1086
     34 H5          1.4136   -3.5181   -2.0128 H         1 <0>         0.0935
     35 H6          2.7997   -4.8228   -0.5349 H         1 <0>         0.0795
     36 H7          1.6860   -3.6296    1.7891 H         1 <0>         0.0640
     37 H8         -0.0386   -4.0914    1.8210 H         1 <0>         0.0995
     38 H9          0.6552   -6.8460   -1.3534 H         1 <0>         0.0648
     39 H10         1.9189   -6.2492   -2.4557 H         1 <0>         0.0665
     40 H11         5.5451  -13.2703    3.9523 H         1 <0>         0.3995
     41 H12         3.3774    3.1975   -0.0138 H         1 <0>         0.4062
     42 H13         4.3085    1.7992   -0.0299 H         1 <0>         0.4187
@<TRIPOS>BOND
     1    1    6 ar
     2    1    2 ar
     3    1   30 1
     4    2    3 ar
     5    3    4 ar
     6    3   29 1
     7    4    9 1
     8    4    5 ar
     9    5    6 ar
    10    5    7 1
    11    7    8 1
    12    7   10 1
    13    8    9 2
    14    8   31 1
    15   10   14 1
    16   10   11 1
    17   10   32 1
    18   11   12 1
    19   11   33 1
    20   11   34 1
    21   12   13 1
    22   12   15 1
    23   12   35 1
    24   13   14 1
    25   14   36 1
    26   14   37 1
    27   15   16 1
    28   15   38 1
    29   15   39 1
    30   16   17 1
    31   17   18 2
    32   17   19 1
    33   17   20 1
    34   20   21 1
    35   21   22 2
    36   21   23 1
    37   21   24 1
    38   24   25 1
    39   25   26 2
    40   25   27 1
    41   25   28 1
    42   28   40 1
    43   29   41 1
    44   29   42 1
@<TRIPOS>MOLECULE
CHEMBL72472__26
   41    43     0     0     0
SMALL
USER_CHARGES

@<TRIPOS>ATOM
      1 C1         -0.0158    1.3119    0.0093 C.ar      1 <0>         0.3489
      2 N1          1.0888    2.0360    0.0026 N.ar      1 <0>        -0.6006
      3 C2          2.2875    1.4625   -0.0119 C.ar      1 <0>         0.5044
      4 C3          2.3582    0.0588   -0.0202 C.ar      1 <0>        -0.1065
      5 C4          1.1547   -0.6659   -0.0126 C.ar      1 <0>         0.2952
      6 N2          0.0021   -0.0041    0.0020 N.ar      1 <0>        -0.5510
      7 N3          1.5110   -1.9908   -0.0227 N.pl3     1 <0>        -0.4554
      8 C5          2.8729   -2.0476   -0.0358 C.2       1 <0>         0.2690
      9 N4          3.3680   -0.8441   -0.0343 N.2       1 <0>        -0.4688
     10 C6          0.5956   -3.1347   -0.0195 C.3       1 <0>         0.1019
     11 C7          0.8748   -4.0554   -1.2323 C.3       1 <0>        -0.1593
     12 C8          1.7649   -5.1582   -0.6046 C.3       1 <0>         0.0709
     13 O1          1.1994   -5.3390    0.7115 O.3       1 <0>        -0.3368
     14 C9          0.8587   -4.0326    1.2049 C.3       1 <0>         0.0358
     15 C10         1.6700   -6.4529   -1.4143 C.3       1 <0>         0.1384
     16 O2          2.5855   -7.4140   -0.8849 O.3       1 <0>        -0.7612
     17 P1          2.7527   -8.8946   -1.4948 P.3       1 <0>         2.2906
     18 O3          1.3770   -9.5972   -1.5255 O.2       1 <0>        -1.1046
     19 O4          3.3146   -8.7996   -2.9308 O.3       1 <0>        -1.1186
     20 O5          3.7677   -9.7420   -0.5762 O.3       1 <0>        -1.0976
     21 P2          4.1164  -11.3084   -0.4463 P.3       1 <0>         2.3457
     22 O6          2.8161  -12.1360   -0.5528 O.2       1 <0>        -1.1160
     23 O7          5.0814  -11.7170   -1.5816 O.3       1 <0>        -1.1404
     24 O8          4.8144  -11.5865    0.9776 O.3       1 <0>        -1.1050
     25 P3          5.1157  -12.9156    1.8349 P.3       1 <0>         2.2216
     26 O9          3.8937  -13.8906    1.7334 O.2       1 <0>        -1.1974
     27 O10         6.3955  -13.6217    1.2710 O.3       1 <0>        -1.2118
     28 O11         5.3511  -12.5276    3.3344 O.3       1 <0>        -1.2132
     29 N5          3.4393    2.2295   -0.0193 N.pl3     1 <0>        -0.8231
     30 H1         -0.9693    1.8187    0.0257 H         1 <0>         0.1995
     31 H2          3.4551   -2.9572   -0.0459 H         1 <0>         0.2265
     32 H3         -0.4396   -2.7937   -0.0272 H         1 <0>         0.1259
     33 H4         -0.0516   -4.4779   -1.6213 H         1 <0>         0.1082
     34 H5          1.4136   -3.5181   -2.0128 H         1 <0>         0.0921
     35 H6          2.7997   -4.8228   -0.5349 H         1 <0>         0.0796
     36 H7          1.6860   -3.6296    1.7891 H         1 <0>         0.0637
     37 H8         -0.0386   -4.0914    1.8210 H         1 <0>         0.0989
     38 H9          0.6552   -6.8460   -1.3534 H         1 <0>         0.0630
     39 H10         1.9189   -6.2492   -2.4557 H         1 <0>         0.0637
     40 H11         3.3774    3.1975   -0.0138 H         1 <0>         0.4049
     41 H12         4.3085    1.7992   -0.0299 H         1 <0>         0.4187
@<TRIPOS>BOND
     1    1    6 ar
     2    1    2 ar
     3    1   30 1
     4    2    3 ar
     5    3    4 ar
     6    3   29 1
     7    4    9 1
     8    4    5 ar
     9    5    6 ar
    10    5    7 1
    11    7    8 1
    12    7   10 1
    13    8    9 2
    14    8   31 1
    15   10   14 1
    16   10   11 1
    17   10   32 1
    18   11   12 1
    19   11   33 1
    20   11   34 1
    21   12   13 1
    22   12   15 1
    23   12   35 1
    24   13   14 1
    25   14   36 1
    26   14   37 1
    27   15   16 1
    28   15   38 1
    29   15   39 1
    30   16   17 1
    31   17   18 2
    32   17   19 1
    33   17   20 1
    34   20   21 1
    35   21   22 2
    36   21   23 1
    37   21   24 1
    38   24   25 1
    39   25   26 2
    40   25   27 1
    41   25   28 1
    42   29   40 1
    43   29   41 1
@<TRIPOS>MOLECULE
CHEMBL72472__27
   42    44     0     0     0
SMALL
USER_CHARGES

@<TRIPOS>ATOM
      1 C1         -0.0158    1.3119    0.0093 C.ar      1 <0>         0.3528
      2 N1          1.0888    2.0360    0.0026 N.ar      1 <0>        -0.5990
      3 C2          2.2875    1.4625   -0.0119 C.ar      1 <0>         0.5057
      4 C3          2.3582    0.0588   -0.0202 C.ar      1 <0>        -0.1078
      5 C4          1.1547   -0.6659   -0.0126 C.ar      1 <0>         0.2972
      6 N2          0.0021   -0.0041    0.0020 N.ar      1 <0>        -0.5529
      7 N3          1.5110   -1.9908   -0.0227 N.pl3     1 <0>        -0.4573
      8 C5          2.8729   -2.0476   -0.0358 C.2       1 <0>         0.2646
      9 N4          3.3680   -0.8441   -0.0343 N.2       1 <0>        -0.4668
     10 C6          0.5956   -3.1347   -0.0195 C.3       1 <0>         0.1029
     11 C7          0.8748   -4.0554   -1.2323 C.3       1 <0>        -0.1600
     12 C8          1.7649   -5.1582   -0.6046 C.3       1 <0>         0.0714
     13 O1          1.1994   -5.3390    0.7115 O.3       1 <0>        -0.3409
     14 C9          0.8587   -4.0326    1.2049 C.3       1 <0>         0.0364
     15 C10         1.6700   -6.4529   -1.4143 C.3       1 <0>         0.1387
     16 O2          2.5855   -7.4140   -0.8849 O.3       1 <0>        -0.7639
     17 P1          2.7527   -8.8946   -1.4948 P.3       1 <0>         2.2884
     18 O3          1.3770   -9.5972   -1.5255 O.2       1 <0>        -1.0999
     19 O4          3.3146   -8.7996   -2.9308 O.3       1 <0>        -1.1116
     20 O5          3.7677   -9.7420   -0.5762 O.3       1 <0>        -1.0977
     21 P2          4.1164  -11.3084   -0.4463 P.3       1 <0>         2.3468
     22 O6          2.8161  -12.1360   -0.5528 O.2       1 <0>        -1.0968
     23 O7          5.0814  -11.7170   -1.5816 O.3       1 <0>        -1.1170
     24 O8          4.8144  -11.5865    0.9776 O.3       1 <0>        -1.0975
     25 P3          5.1157  -12.9156    1.8349 P.3       1 <0>         2.2697
     26 O9          3.9106  -13.8772    1.7348 O.2       1 <0>        -1.1072
     27 O10         6.3778  -13.6120    1.2788 O.3       1 <0>        -1.1202
     28 O11         5.3576  -12.5169    3.3758 O.3       1 <0>        -0.9091
     29 N5          3.4393    2.2295   -0.0193 N.pl3     1 <0>        -0.8220
     30 H1         -0.9693    1.8187    0.0257 H         1 <0>         0.2009
     31 H2          3.4551   -2.9572   -0.0459 H         1 <0>         0.2245
     32 H3         -0.4396   -2.7937   -0.0272 H         1 <0>         0.1269
     33 H4         -0.0516   -4.4779   -1.6213 H         1 <0>         0.1086
     34 H5          1.4136   -3.5181   -2.0128 H         1 <0>         0.0935
     35 H6          2.7997   -4.8228   -0.5349 H         1 <0>         0.0795
     36 H7          1.6860   -3.6296    1.7891 H         1 <0>         0.0640
     37 H8         -0.0386   -4.0914    1.8210 H         1 <0>         0.0995
     38 H9          0.6552   -6.8460   -1.3534 H         1 <0>         0.0648
     39 H10         1.9189   -6.2492   -2.4557 H         1 <0>         0.0665
     40 H11         5.5451  -13.2703    3.9523 H         1 <0>         0.3995
     41 H12         3.3774    3.1975   -0.0138 H         1 <0>         0.4062
     42 H13         4.3085    1.7992   -0.0299 H         1 <0>         0.4187
@<TRIPOS>BOND
     1    1    6 ar
     2    1    2 ar
     3    1   30 1
     4    2    3 ar
     5    3    4 ar
     6    3   29 1
     7    4    9 1
     8    4    5 ar
     9    5    6 ar
    10    5    7 1
    11    7    8 1
    12    7   10 1
    13    8    9 2
    14    8   31 1
    15   10   14 1
    16   10   11 1
    17   10   32 1
    18   11   12 1
    19   11   33 1
    20   11   34 1
    21   12   13 1
    22   12   15 1
    23   12   35 1
    24   13   14 1
    25   14   36 1
    26   14   37 1
    27   15   16 1
    28   15   38 1
    29   15   39 1
    30   16   17 1
    31   17   18 2
    32   17   19 1
    33   17   20 1
    34   20   21 1
    35   21   22 2
    36   21   23 1
    37   21   24 1
    38   24   25 1
    39   25   26 2
    40   25   27 1
    41   25   28 1
    42   28   40 1
    43   29   41 1
    44   29   42 1
@<TRIPOS>MOLECULE
CHEMBL72472__28
   41    43     0     0     0
SMALL
USER_CHARGES

@<TRIPOS>ATOM
      1 C1         -0.0158    1.3119    0.0093 C.ar      1 <0>         0.3489
      2 N1          1.0888    2.0360    0.0026 N.ar      1 <0>        -0.6006
      3 C2          2.2875    1.4625   -0.0119 C.ar      1 <0>         0.5044
      4 C3          2.3582    0.0588   -0.0202 C.ar      1 <0>        -0.1065
      5 C4          1.1547   -0.6659   -0.0126 C.ar      1 <0>         0.2952
      6 N2          0.0021   -0.0041    0.0020 N.ar      1 <0>        -0.5510
      7 N3          1.5110   -1.9908   -0.0227 N.pl3     1 <0>        -0.4554
      8 C5          2.8729   -2.0476   -0.0358 C.2       1 <0>         0.2690
      9 N4          3.3680   -0.8441   -0.0343 N.2       1 <0>        -0.4688
     10 C6          0.5956   -3.1347   -0.0195 C.3       1 <0>         0.1019
     11 C7          0.8748   -4.0554   -1.2323 C.3       1 <0>        -0.1593
     12 C8          1.7649   -5.1582   -0.6046 C.3       1 <0>         0.0709
     13 O1          1.1994   -5.3390    0.7115 O.3       1 <0>        -0.3368
     14 C9          0.8587   -4.0326    1.2049 C.3       1 <0>         0.0358
     15 C10         1.6700   -6.4529   -1.4143 C.3       1 <0>         0.1384
     16 O2          2.5855   -7.4140   -0.8849 O.3       1 <0>        -0.7612
     17 P1          2.7527   -8.8946   -1.4948 P.3       1 <0>         2.2906
     18 O3          1.3770   -9.5972   -1.5255 O.2       1 <0>        -1.1046
     19 O4          3.3146   -8.7996   -2.9308 O.3       1 <0>        -1.1186
     20 O5          3.7677   -9.7420   -0.5762 O.3       1 <0>        -1.0976
     21 P2          4.1164  -11.3084   -0.4463 P.3       1 <0>         2.3457
     22 O6          2.8161  -12.1360   -0.5528 O.2       1 <0>        -1.1160
     23 O7          5.0814  -11.7170   -1.5816 O.3       1 <0>        -1.1404
     24 O8          4.8144  -11.5865    0.9776 O.3       1 <0>        -1.1050
     25 P3          5.1157  -12.9156    1.8349 P.3       1 <0>         2.2216
     26 O9          3.8937  -13.8906    1.7334 O.2       1 <0>        -1.1974
     27 O10         6.3955  -13.6217    1.2710 O.3       1 <0>        -1.2118
     28 O11         5.3511  -12.5276    3.3344 O.3       1 <0>        -1.2132
     29 N5          3.4393    2.2295   -0.0193 N.pl3     1 <0>        -0.8231
     30 H1         -0.9693    1.8187    0.0257 H         1 <0>         0.1995
     31 H2          3.4551   -2.9572   -0.0459 H         1 <0>         0.2265
     32 H3         -0.4396   -2.7937   -0.0272 H         1 <0>         0.1259
     33 H4         -0.0516   -4.4779   -1.6213 H         1 <0>         0.1082
     34 H5          1.4136   -3.5181   -2.0128 H         1 <0>         0.0921
     35 H6          2.7997   -4.8228   -0.5349 H         1 <0>         0.0796
     36 H7          1.6860   -3.6296    1.7891 H         1 <0>         0.0637
     37 H8         -0.0386   -4.0914    1.8210 H         1 <0>         0.0989
     38 H9          0.6552   -6.8460   -1.3534 H         1 <0>         0.0630
     39 H10         1.9189   -6.2492   -2.4557 H         1 <0>         0.0637
     40 H11         3.3774    3.1975   -0.0138 H         1 <0>         0.4049
     41 H12         4.3085    1.7992   -0.0299 H         1 <0>         0.4187
@<TRIPOS>BOND
     1    1    6 ar
     2    1    2 ar
     3    1   30 1
     4    2    3 ar
     5    3    4 ar
     6    3   29 1
     7    4    9 1
     8    4    5 ar
     9    5    6 ar
    10    5    7 1
    11    7    8 1
    12    7   10 1
    13    8    9 2
    14    8   31 1
    15   10   14 1
    16   10   11 1
    17   10   32 1
    18   11   12 1
    19   11   33 1
    20   11   34 1
    21   12   13 1
    22   12   15 1
    23   12   35 1
    24   13   14 1
    25   14   36 1
    26   14   37 1
    27   15   16 1
    28   15   38 1
    29   15   39 1
    30   16   17 1
    31   17   18 2
    32   17   19 1
    33   17   20 1
    34   20   21 1
    35   21   22 2
    36   21   23 1
    37   21   24 1
    38   24   25 1
    39   25   26 2
    40   25   27 1
    41   25   28 1
    42   29   40 1
    43   29   41 1
@<TRIPOS>MOLECULE
CHEMBL72472__29
   42    44     0     0     0
SMALL
USER_CHARGES

@<TRIPOS>ATOM
      1 C1         -0.0158    1.3119    0.0093 C.ar      1 <0>         0.3528
      2 N1          1.0888    2.0360    0.0026 N.ar      1 <0>        -0.5990
      3 C2          2.2875    1.4625   -0.0119 C.ar      1 <0>         0.5057
      4 C3          2.3582    0.0588   -0.0202 C.ar      1 <0>        -0.1078
      5 C4          1.1547   -0.6659   -0.0126 C.ar      1 <0>         0.2972
      6 N2          0.0021   -0.0041    0.0020 N.ar      1 <0>        -0.5529
      7 N3          1.5110   -1.9908   -0.0227 N.pl3     1 <0>        -0.4573
      8 C5          2.8729   -2.0476   -0.0358 C.2       1 <0>         0.2646
      9 N4          3.3680   -0.8441   -0.0343 N.2       1 <0>        -0.4668
     10 C6          0.5956   -3.1347   -0.0195 C.3       1 <0>         0.1029
     11 C7          0.8748   -4.0554   -1.2323 C.3       1 <0>        -0.1600
     12 C8          1.7649   -5.1582   -0.6046 C.3       1 <0>         0.0714
     13 O1          1.1994   -5.3390    0.7115 O.3       1 <0>        -0.3409
     14 C9          0.8587   -4.0326    1.2049 C.3       1 <0>         0.0364
     15 C10         1.6700   -6.4529   -1.4143 C.3       1 <0>         0.1387
     16 O2          2.5855   -7.4140   -0.8849 O.3       1 <0>        -0.7639
     17 P1          2.7527   -8.8946   -1.4948 P.3       1 <0>         2.2884
     18 O3          1.3770   -9.5972   -1.5255 O.2       1 <0>        -1.0999
     19 O4          3.3146   -8.7996   -2.9308 O.3       1 <0>        -1.1116
     20 O5          3.7677   -9.7420   -0.5762 O.3       1 <0>        -1.0977
     21 P2          4.1164  -11.3084   -0.4463 P.3       1 <0>         2.3468
     22 O6          2.8161  -12.1360   -0.5528 O.2       1 <0>        -1.0968
     23 O7          5.0814  -11.7170   -1.5816 O.3       1 <0>        -1.1170
     24 O8          4.8144  -11.5865    0.9776 O.3       1 <0>        -1.0975
     25 P3          5.1157  -12.9156    1.8349 P.3       1 <0>         2.2697
     26 O9          3.9106  -13.8772    1.7348 O.2       1 <0>        -1.1072
     27 O10         6.3778  -13.6120    1.2788 O.3       1 <0>        -1.1202
     28 O11         5.3576  -12.5169    3.3758 O.3       1 <0>        -0.9091
     29 N5          3.4393    2.2295   -0.0193 N.pl3     1 <0>        -0.8220
     30 H1         -0.9693    1.8187    0.0257 H         1 <0>         0.2009
     31 H2          3.4551   -2.9572   -0.0459 H         1 <0>         0.2245
     32 H3         -0.4396   -2.7937   -0.0272 H         1 <0>         0.1269
     33 H4         -0.0516   -4.4779   -1.6213 H         1 <0>         0.1086
     34 H5          1.4136   -3.5181   -2.0128 H         1 <0>         0.0935
     35 H6          2.7997   -4.8228   -0.5349 H         1 <0>         0.0795
     36 H7          1.6860   -3.6296    1.7891 H         1 <0>         0.0640
     37 H8         -0.0386   -4.0914    1.8210 H         1 <0>         0.0995
     38 H9          0.6552   -6.8460   -1.3534 H         1 <0>         0.0648
     39 H10         1.9189   -6.2492   -2.4557 H         1 <0>         0.0665
     40 H11         5.5451  -13.2703    3.9523 H         1 <0>         0.3995
     41 H12         3.3774    3.1975   -0.0138 H         1 <0>         0.4062
     42 H13         4.3085    1.7992   -0.0299 H         1 <0>         0.4187
@<TRIPOS>BOND
     1    1    6 ar
     2    1    2 ar
     3    1   30 1
     4    2    3 ar
     5    3    4 ar
     6    3   29 1
     7    4    9 1
     8    4    5 ar
     9    5    6 ar
    10    5    7 1
    11    7    8 1
    12    7   10 1
    13    8    9 2
    14    8   31 1
    15   10   14 1
    16   10   11 1
    17   10   32 1
    18   11   12 1
    19   11   33 1
    20   11   34 1
    21   12   13 1
    22   12   15 1
    23   12   35 1
    24   13   14 1
    25   14   36 1
    26   14   37 1
    27   15   16 1
    28   15   38 1
    29   15   39 1
    30   16   17 1
    31   17   18 2
    32   17   19 1
    33   17   20 1
    34   20   21 1
    35   21   22 2
    36   21   23 1
    37   21   24 1
    38   24   25 1
    39   25   26 2
    40   25   27 1
    41   25   28 1
    42   28   40 1
    43   29   41 1
    44   29   42 1
@<TRIPOS>MOLECULE
CHEMBL72472__30
   41    43     0     0     0
SMALL
USER_CHARGES

@<TRIPOS>ATOM
      1 C1         -0.0158    1.3119    0.0093 C.ar      1 <0>         0.3489
      2 N1          1.0888    2.0360    0.0026 N.ar      1 <0>        -0.6006
      3 C2          2.2875    1.4625   -0.0119 C.ar      1 <0>         0.5044
      4 C3          2.3582    0.0588   -0.0202 C.ar      1 <0>        -0.1065
      5 C4          1.1547   -0.6659   -0.0126 C.ar      1 <0>         0.2952
      6 N2          0.0021   -0.0041    0.0020 N.ar      1 <0>        -0.5510
      7 N3          1.5110   -1.9908   -0.0227 N.pl3     1 <0>        -0.4554
      8 C5          2.8729   -2.0476   -0.0358 C.2       1 <0>         0.2690
      9 N4          3.3680   -0.8441   -0.0343 N.2       1 <0>        -0.4688
     10 C6          0.5956   -3.1347   -0.0195 C.3       1 <0>         0.1019
     11 C7          0.8748   -4.0554   -1.2323 C.3       1 <0>        -0.1593
     12 C8          1.7649   -5.1582   -0.6046 C.3       1 <0>         0.0709
     13 O1          1.1994   -5.3390    0.7115 O.3       1 <0>        -0.3368
     14 C9          0.8587   -4.0326    1.2049 C.3       1 <0>         0.0358
     15 C10         1.6700   -6.4529   -1.4143 C.3       1 <0>         0.1384
     16 O2          2.5855   -7.4140   -0.8849 O.3       1 <0>        -0.7612
     17 P1          2.7527   -8.8946   -1.4948 P.3       1 <0>         2.2906
     18 O3          1.3770   -9.5972   -1.5255 O.2       1 <0>        -1.1046
     19 O4          3.3146   -8.7996   -2.9308 O.3       1 <0>        -1.1186
     20 O5          3.7677   -9.7420   -0.5762 O.3       1 <0>        -1.0976
     21 P2          4.1164  -11.3084   -0.4463 P.3       1 <0>         2.3457
     22 O6          2.8161  -12.1360   -0.5528 O.2       1 <0>        -1.1160
     23 O7          5.0814  -11.7170   -1.5816 O.3       1 <0>        -1.1404
     24 O8          4.8144  -11.5865    0.9776 O.3       1 <0>        -1.1050
     25 P3          5.1157  -12.9156    1.8349 P.3       1 <0>         2.2216
     26 O9          3.8937  -13.8906    1.7334 O.2       1 <0>        -1.1974
     27 O10         6.3955  -13.6217    1.2710 O.3       1 <0>        -1.2118
     28 O11         5.3511  -12.5276    3.3344 O.3       1 <0>        -1.2132
     29 N5          3.4393    2.2295   -0.0193 N.pl3     1 <0>        -0.8231
     30 H1         -0.9693    1.8187    0.0257 H         1 <0>         0.1995
     31 H2          3.4551   -2.9572   -0.0459 H         1 <0>         0.2265
     32 H3         -0.4396   -2.7937   -0.0272 H         1 <0>         0.1259
     33 H4         -0.0516   -4.4779   -1.6213 H         1 <0>         0.1082
     34 H5          1.4136   -3.5181   -2.0128 H         1 <0>         0.0921
     35 H6          2.7997   -4.8228   -0.5349 H         1 <0>         0.0796
     36 H7          1.6860   -3.6296    1.7891 H         1 <0>         0.0637
     37 H8         -0.0386   -4.0914    1.8210 H         1 <0>         0.0989
     38 H9          0.6552   -6.8460   -1.3534 H         1 <0>         0.0630
     39 H10         1.9189   -6.2492   -2.4557 H         1 <0>         0.0637
     40 H11         3.3774    3.1975   -0.0138 H         1 <0>         0.4049
     41 H12         4.3085    1.7992   -0.0299 H         1 <0>         0.4187
@<TRIPOS>BOND
     1    1    6 ar
     2    1    2 ar
     3    1   30 1
     4    2    3 ar
     5    3    4 ar
     6    3   29 1
     7    4    9 1
     8    4    5 ar
     9    5    6 ar
    10    5    7 1
    11    7    8 1
    12    7   10 1
    13    8    9 2
    14    8   31 1
    15   10   14 1
    16   10   11 1
    17   10   32 1
    18   11   12 1
    19   11   33 1
    20   11   34 1
    21   12   13 1
    22   12   15 1
    23   12   35 1
    24   13   14 1
    25   14   36 1
    26   14   37 1
    27   15   16 1
    28   15   38 1
    29   15   39 1
    30   16   17 1
    31   17   18 2
    32   17   19 1
    33   17   20 1
    34   20   21 1
    35   21   22 2
    36   21   23 1
    37   21   24 1
    38   24   25 1
    39   25   26 2
    40   25   27 1
    41   25   28 1
    42   29   40 1
    43   29   41 1
@<TRIPOS>MOLECULE
CHEMBL72472__31
   42    44     0     0     0
SMALL
USER_CHARGES

@<TRIPOS>ATOM
      1 C1         -0.0158    1.3119    0.0093 C.ar      1 <0>         0.3528
      2 N1          1.0888    2.0360    0.0026 N.ar      1 <0>        -0.5990
      3 C2          2.2875    1.4625   -0.0119 C.ar      1 <0>         0.5057
      4 C3          2.3582    0.0588   -0.0202 C.ar      1 <0>        -0.1078
      5 C4          1.1547   -0.6659   -0.0126 C.ar      1 <0>         0.2972
      6 N2          0.0021   -0.0041    0.0020 N.ar      1 <0>        -0.5529
      7 N3          1.5110   -1.9908   -0.0227 N.pl3     1 <0>        -0.4573
      8 C5          2.8729   -2.0476   -0.0358 C.2       1 <0>         0.2646
      9 N4          3.3680   -0.8441   -0.0343 N.2       1 <0>        -0.4668
     10 C6          0.5956   -3.1347   -0.0195 C.3       1 <0>         0.1029
     11 C7          0.8748   -4.0554   -1.2323 C.3       1 <0>        -0.1600
     12 C8          1.7649   -5.1582   -0.6046 C.3       1 <0>         0.0714
     13 O1          1.1994   -5.3390    0.7115 O.3       1 <0>        -0.3409
     14 C9          0.8587   -4.0326    1.2049 C.3       1 <0>         0.0364
     15 C10         1.6700   -6.4529   -1.4143 C.3       1 <0>         0.1387
     16 O2          2.5855   -7.4140   -0.8849 O.3       1 <0>        -0.7639
     17 P1          2.7527   -8.8946   -1.4948 P.3       1 <0>         2.2884
     18 O3          1.3770   -9.5972   -1.5255 O.2       1 <0>        -1.0999
     19 O4          3.3146   -8.7996   -2.9308 O.3       1 <0>        -1.1116
     20 O5          3.7677   -9.7420   -0.5762 O.3       1 <0>        -1.0977
     21 P2          4.1164  -11.3084   -0.4463 P.3       1 <0>         2.3468
     22 O6          2.8161  -12.1360   -0.5528 O.2       1 <0>        -1.0968
     23 O7          5.0814  -11.7170   -1.5816 O.3       1 <0>        -1.1170
     24 O8          4.8144  -11.5865    0.9776 O.3       1 <0>        -1.0975
     25 P3          5.1157  -12.9156    1.8349 P.3       1 <0>         2.2697
     26 O9          3.9106  -13.8772    1.7348 O.2       1 <0>        -1.1072
     27 O10         6.3778  -13.6120    1.2788 O.3       1 <0>        -1.1202
     28 O11         5.3576  -12.5169    3.3758 O.3       1 <0>        -0.9091
     29 N5          3.4393    2.2295   -0.0193 N.pl3     1 <0>        -0.8220
     30 H1         -0.9693    1.8187    0.0257 H         1 <0>         0.2009
     31 H2          3.4551   -2.9572   -0.0459 H         1 <0>         0.2245
     32 H3         -0.4396   -2.7937   -0.0272 H         1 <0>         0.1269
     33 H4         -0.0516   -4.4779   -1.6213 H         1 <0>         0.1086
     34 H5          1.4136   -3.5181   -2.0128 H         1 <0>         0.0935
     35 H6          2.7997   -4.8228   -0.5349 H         1 <0>         0.0795
     36 H7          1.6860   -3.6296    1.7891 H         1 <0>         0.0640
     37 H8         -0.0386   -4.0914    1.8210 H         1 <0>         0.0995
     38 H9          0.6552   -6.8460   -1.3534 H         1 <0>         0.0648
     39 H10         1.9189   -6.2492   -2.4557 H         1 <0>         0.0665
     40 H11         5.5451  -13.2703    3.9523 H         1 <0>         0.3995
     41 H12         3.3774    3.1975   -0.0138 H         1 <0>         0.4062
     42 H13         4.3085    1.7992   -0.0299 H         1 <0>         0.4187
@<TRIPOS>BOND
     1    1    6 ar
     2    1    2 ar
     3    1   30 1
     4    2    3 ar
     5    3    4 ar
     6    3   29 1
     7    4    9 1
     8    4    5 ar
     9    5    6 ar
    10    5    7 1
    11    7    8 1
    12    7   10 1
    13    8    9 2
    14    8   31 1
    15   10   14 1
    16   10   11 1
    17   10   32 1
    18   11   12 1
    19   11   33 1
    20   11   34 1
    21   12   13 1
    22   12   15 1
    23   12   35 1
    24   13   14 1
    25   14   36 1
    26   14   37 1
    27   15   16 1
    28   15   38 1
    29   15   39 1
    30   16   17 1
    31   17   18 2
    32   17   19 1
    33   17   20 1
    34   20   21 1
    35   21   22 2
    36   21   23 1
    37   21   24 1
    38   24   25 1
    39   25   26 2
    40   25   27 1
    41   25   28 1
    42   28   40 1
    43   29   41 1
    44   29   42 1
@<TRIPOS>MOLECULE
CHEMBL83412
   46    47     0     0     0
SMALL
USER_CHARGES

@<TRIPOS>ATOM
      1 C1         -0.0187    1.5258    0.0104 C.3       1 <0>        -0.1486
      2 C2          0.0021   -0.0041    0.0020 C.3       1 <0>        -0.0698
      3 C3         -1.4117   -0.5257    0.0127 C.2       1 <0>        -0.1271
      4 C4         -2.0964   -0.6700    1.2283 C.2       1 <0>        -0.1471
      5 C5         -3.3792   -1.1443    1.2205 C.2       1 <0>         0.1105
      6 C6         -3.9830   -1.4773   -0.0120 C.2       1 <0>         0.5129
      7 N1         -3.2953   -1.3259   -1.1599 N.am      1 <0>        -0.5932
      8 C7         -2.0214   -0.8491   -1.1501 C.2       1 <0>         0.0819
      9 C8         -1.2783   -0.6846   -2.4508 C.3       1 <0>        -0.1178
     10 O1         -5.1271   -1.9024   -0.0367 O.2       1 <0>        -0.5510
     11 N2         -4.0851   -1.2984    2.4201 N.pl3     1 <0>        -0.7195
     12 C9         -5.4588   -1.8073    2.4015 C.3       1 <0>         0.1914
     13 C10        -5.9877   -1.8773    3.8109 C.ar      1 <0>        -0.1447
     14 C11        -5.9993   -3.0828    4.4859 C.ar      1 <0>        -0.0589
     15 C12        -6.4848   -3.1478    5.7787 C.ar      1 <0>        -0.1266
     16 C13        -6.9595   -2.0070    6.3996 C.ar      1 <0>        -0.0403
     17 C14        -6.9497   -0.7994    5.7293 C.ar      1 <0>        -0.2093
     18 C15        -6.4580   -0.7305    4.4336 C.ar      1 <0>         0.1425
     19 O2         -6.4421    0.4575    3.7739 O.3       1 <0>        -0.3085
     20 C16        -6.9419    1.5967    4.4770 C.3       1 <0>         0.0265
     21 C17        -7.4885   -2.0816    7.8088 C.3       1 <0>        -0.1213
     22 C18        -6.4971   -4.4641    6.5122 C.3       1 <0>        -0.1132
     23 H1          1.0039    1.9031    0.0027 H         1 <0>         0.0570
     24 H2         -0.5459    1.8868   -0.8726 H         1 <0>         0.0543
     25 H3         -0.5289    1.8773    0.9072 H         1 <0>         0.0557
     26 H4          0.5123   -0.3556   -0.8948 H         1 <0>         0.0734
     27 H5          0.5293   -0.3651    0.8851 H         1 <0>         0.0725
     28 H6         -1.6159   -0.4098    2.1599 H         1 <0>         0.1272
     29 H7         -0.7443   -1.6060   -2.6831 H         1 <0>         0.0804
     30 H8         -1.9873   -0.4644   -3.2489 H         1 <0>         0.0703
     31 H9         -0.5659    0.1354   -2.3610 H         1 <0>         0.0894
     32 H10        -3.7145   -1.5560   -2.0038 H         1 <0>         0.4144
     33 H11        -3.6646   -1.0682    3.2633 H         1 <0>         0.4020
     34 H12        -6.0857   -1.1392    1.8109 H         1 <0>         0.0765
     35 H13        -5.4713   -2.8032    1.9588 H         1 <0>         0.0716
     36 H14        -5.6290   -3.9751    4.0031 H         1 <0>         0.1299
     37 H15        -7.3206    0.0912    6.2147 H         1 <0>         0.1288
     38 H16        -6.8723    2.4772    3.8382 H         1 <0>         0.1001
     39 H17        -7.9835    1.4271    4.7497 H         1 <0>         0.0553
     40 H18        -6.3512    1.7548    5.3793 H         1 <0>         0.0549
     41 H19        -6.6746   -1.9058    8.5122 H         1 <0>         0.0740
     42 H20        -8.2593   -1.3236    7.9481 H         1 <0>         0.0661
     43 H21        -7.9142   -3.0694    7.9852 H         1 <0>         0.0744
     44 H22        -5.5586   -4.5879    7.0524 H         1 <0>         0.0684
     45 H23        -7.3274   -4.4788    7.2183 H         1 <0>         0.0692
     46 H24        -6.6144   -5.2778    5.7965 H         1 <0>         0.0652
@<TRIPOS>BOND
     1    1    2 1
     2    1   23 1
     3    1   24 1
     4    1   25 1
     5    2   26 1
     6    2   27 1
     7    2    3 1
     8    3    8 2
     9    3    4 1
    10    4   28 1
    11    4    5 2
    12    5    6 1
    13    5   11 1
    14    6   10 2
    15    6    7 am
    16    7   32 1
    17    7    8 1
    18    8    9 1
    19    9   29 1
    20    9   30 1
    21    9   31 1
    22   11   12 1
    23   11   33 1
    24   12   13 1
    25   12   34 1
    26   12   35 1
    27   13   18 ar
    28   13   14 ar
    29   14   15 ar
    30   14   36 1
    31   15   16 ar
    32   15   22 1
    33   16   17 ar
    34   16   21 1
    35   17   18 ar
    36   17   37 1
    37   18   19 1
    38   19   20 1
    39   20   38 1
    40   20   39 1
    41   20   40 1
    42   21   41 1
    43   21   42 1
    44   21   43 1
    45   22   44 1
    46   22   45 1
    47   22   46 1
@<TRIPOS>MOLECULE
CHEMBL145297
   37    39     0     0     0
SMALL
USER_CHARGES

@<TRIPOS>ATOM
      1 C1         -0.0158    1.3121    0.0093 C.ar      1 <0>         0.3403
      2 N1          1.0889    2.0360    0.0026 N.ar      1 <0>        -0.6013
      3 C2          2.2875    1.4624   -0.0120 C.ar      1 <0>         0.5061
      4 C3          2.3582    0.0587   -0.0202 C.ar      1 <0>        -0.0988
      5 C4          1.1544   -0.6658   -0.0126 C.ar      1 <0>         0.2842
      6 N2          0.0021   -0.0041    0.0020 N.ar      1 <0>        -0.5515
      7 N3          1.5112   -1.9932   -0.0224 N.pl3     1 <0>        -0.4149
      8 C5          2.8758   -2.0483   -0.0353 C.2       1 <0>         0.2884
      9 N4          3.3687   -0.8438   -0.0340 N.2       1 <0>        -0.4481
     10 C6          0.6402   -3.0829   -0.0190 C.2       1 <0>         0.1132
     11 C7          1.1205   -4.3108   -0.0296 C.2       1 <0>        -0.2416
     12 C8          0.8810   -5.7986   -0.0406 C.3       1 <0>        -0.0928
     13 C9          2.3059   -5.2412   -0.0457 C.3       1 <0>        -0.0875
     14 C10         3.1249   -5.3662    1.2406 C.3       1 <0>         0.1373
     15 O1          4.2647   -6.1942    1.0010 O.3       1 <0>        -0.6874
     16 P1          5.3500   -6.5426    2.1380 P.3       1 <0>         1.8939
     17 O2          4.6214   -6.9177    3.4477 O.2       1 <0>        -0.9914
     18 O3          6.2190   -7.7324    1.6731 O.3       1 <0>        -0.9665
     19 P2          6.6214   -4.8061    2.4854 P.3       1 <0>        -0.3052
     20 O4          7.3500   -4.4310    1.1756 O.2       1 <0>        -0.7614
     21 O5          5.7524   -3.6163    2.9503 O.3       1 <0>        -0.7652
     22 P3          8.0910   -5.2778    4.0250 P.3       1 <0>         1.8487
     23 O6          7.3624   -5.6530    5.3347 O.2       1 <0>        -1.0011
     24 O7          8.9600   -6.4677    3.5601 O.3       1 <0>        -1.0006
     25 O8          9.0299   -3.9954    4.2815 O.3       1 <0>        -0.8399
     26 N5          3.4394    2.2293   -0.0193 N.pl3     1 <0>        -0.8198
     27 H1         -0.9693    1.8189    0.0257 H         1 <0>         0.1976
     28 H2          3.4595   -2.9570   -0.0447 H         1 <0>         0.2310
     29 H3         -0.4275   -2.9208   -0.0077 H         1 <0>         0.1664
     30 H4          0.5185   -6.2577    0.8792 H         1 <0>         0.1112
     31 H5          0.5144   -6.2434   -0.9657 H         1 <0>         0.1058
     32 H6          2.8712   -5.3215   -0.9742 H         1 <0>         0.1280
     33 H7          3.4548   -4.3772    1.5588 H         1 <0>         0.0643
     34 H8          2.5093   -5.8125    2.0215 H         1 <0>         0.0569
     35 H9          9.7088   -4.1337    4.9562 H         1 <0>         0.3747
     36 H10         3.3776    3.1973   -0.0138 H         1 <0>         0.4039
     37 H11         4.3086    1.7989   -0.0299 H         1 <0>         0.4232
@<TRIPOS>BOND
     1    1    6 ar
     2    1    2 ar
     3    1   27 1
     4    2    3 ar
     5    3    4 ar
     6    3   26 1
     7    4    9 1
     8    4    5 ar
     9    5    6 ar
    10    5    7 1
    11    7    8 1
    12    7   10 1
    13    8    9 2
    14    8   28 1
    15   10   11 2
    16   10   29 1
    17   11   13 1
    18   11   12 1
    19   12   13 1
    20   12   30 1
    21   12   31 1
    22   13   14 1
    23   13   32 1
    24   14   15 1
    25   14   33 1
    26   14   34 1
    27   15   16 1
    28   16   17 2
    29   16   18 1
    30   16   19 1
    31   19   20 2
    32   19   21 1
    33   19   22 1
    34   22   23 2
    35   22   24 1
    36   22   25 1
    37   25   35 1
    38   26   36 1
    39   26   37 1
@<TRIPOS>MOLECULE
CHEMBL145297__1
   36    38     0     0     0
SMALL
USER_CHARGES

@<TRIPOS>ATOM
      1 C1         -0.0158    1.3121    0.0093 C.ar      1 <0>         0.3306
      2 N1          1.0889    2.0360    0.0026 N.ar      1 <0>        -0.6045
      3 C2          2.2875    1.4624   -0.0120 C.ar      1 <0>         0.5044
      4 C3          2.3582    0.0587   -0.0202 C.ar      1 <0>        -0.0960
      5 C4          1.1544   -0.6658   -0.0126 C.ar      1 <0>         0.2770
      6 N2          0.0021   -0.0041    0.0020 N.ar      1 <0>        -0.5503
      7 N3          1.5112   -1.9932   -0.0224 N.pl3     1 <0>        -0.4109
      8 C5          2.8758   -2.0483   -0.0353 C.2       1 <0>         0.2950
      9 N4          3.3687   -0.8438   -0.0340 N.2       1 <0>        -0.4479
     10 C6          0.6402   -3.0829   -0.0190 C.2       1 <0>         0.0995
     11 C7          1.1205   -4.3108   -0.0296 C.2       1 <0>        -0.2377
     12 C8          0.8810   -5.7986   -0.0406 C.3       1 <0>        -0.0980
     13 C9          2.3059   -5.2412   -0.0457 C.3       1 <0>        -0.0819
     14 C10         3.1249   -5.3662    1.2406 C.3       1 <0>         0.1426
     15 O1          4.2647   -6.1942    1.0010 O.3       1 <0>        -0.6867
     16 P1          5.3500   -6.5426    2.1380 P.3       1 <0>         1.6521
     17 O2          4.6214   -6.9177    3.4477 O.2       1 <0>        -1.0123
     18 O3          6.2190   -7.7324    1.6731 O.3       1 <0>        -0.9904
     19 P2          6.6214   -4.8061    2.4854 P.3       1 <0>        -0.3084
     20 O4          7.3500   -4.4310    1.1756 O.2       1 <0>        -0.7724
     21 O5          5.7524   -3.6163    2.9503 O.3       1 <0>        -0.7751
     22 P3          8.0910   -5.2778    4.0250 P.3       1 <0>         2.0098
     23 O6          7.3521   -5.6583    5.3531 O.2       1 <0>        -1.0824
     24 O7          8.9722   -6.4844    3.5536 O.3       1 <0>        -1.0820
     25 O8          9.0046   -4.0299    4.2747 O.3       1 <0>        -1.0978
     26 N5          3.4394    2.2293   -0.0193 N.pl3     1 <0>        -0.8207
     27 H1         -0.9693    1.8189    0.0257 H         1 <0>         0.1939
     28 H2          3.4595   -2.9570   -0.0447 H         1 <0>         0.2340
     29 H3         -0.4275   -2.9208   -0.0077 H         1 <0>         0.1622
     30 H4          0.5185   -6.2577    0.8792 H         1 <0>         0.1081
     31 H5          0.5144   -6.2434   -0.9657 H         1 <0>         0.1007
     32 H6          2.8712   -5.3215   -0.9742 H         1 <0>         0.1237
     33 H7          3.4548   -4.3772    1.5588 H         1 <0>         0.0558
     34 H8          2.5093   -5.8125    2.0215 H         1 <0>         0.0400
     35 H9          3.3776    3.1973   -0.0138 H         1 <0>         0.4016
     36 H10         4.3086    1.7989   -0.0299 H         1 <0>         0.4244
@<TRIPOS>BOND
     1    1    6 ar
     2    1    2 ar
     3    1   27 1
     4    2    3 ar
     5    3    4 ar
     6    3   26 1
     7    4    9 1
     8    4    5 ar
     9    5    6 ar
    10    5    7 1
    11    7    8 1
    12    7   10 1
    13    8    9 2
    14    8   28 1
    15   10   11 2
    16   10   29 1
    17   11   13 1
    18   11   12 1
    19   12   13 1
    20   12   30 1
    21   12   31 1
    22   13   14 1
    23   13   32 1
    24   14   15 1
    25   14   33 1
    26   14   34 1
    27   15   16 1
    28   16   17 2
    29   16   18 1
    30   16   19 1
    31   19   20 2
    32   19   21 1
    33   19   22 1
    34   22   23 2
    35   22   24 1
    36   22   25 1
    37   26   35 1
    38   26   36 1
@<TRIPOS>MOLECULE
CHEMBL145297__2
   37    39     0     0     0
SMALL
USER_CHARGES

@<TRIPOS>ATOM
      1 C1         -0.0158    1.3121    0.0093 C.ar      1 <0>         0.3403
      2 N1          1.0889    2.0360    0.0026 N.ar      1 <0>        -0.6013
      3 C2          2.2875    1.4624   -0.0120 C.ar      1 <0>         0.5061
      4 C3          2.3582    0.0587   -0.0202 C.ar      1 <0>        -0.0988
      5 C4          1.1544   -0.6658   -0.0126 C.ar      1 <0>         0.2842
      6 N2          0.0021   -0.0041    0.0020 N.ar      1 <0>        -0.5515
      7 N3          1.5112   -1.9932   -0.0224 N.pl3     1 <0>        -0.4149
      8 C5          2.8758   -2.0483   -0.0353 C.2       1 <0>         0.2884
      9 N4          3.3687   -0.8438   -0.0340 N.2       1 <0>        -0.4481
     10 C6          0.6402   -3.0829   -0.0190 C.2       1 <0>         0.1132
     11 C7          1.1205   -4.3108   -0.0296 C.2       1 <0>        -0.2416
     12 C8          0.8810   -5.7986   -0.0406 C.3       1 <0>        -0.0928
     13 C9          2.3059   -5.2412   -0.0457 C.3       1 <0>        -0.0875
     14 C10         3.1249   -5.3662    1.2406 C.3       1 <0>         0.1373
     15 O1          4.2647   -6.1942    1.0010 O.3       1 <0>        -0.6874
     16 P1          5.3500   -6.5426    2.1380 P.3       1 <0>         1.8939
     17 O2          4.6214   -6.9177    3.4477 O.2       1 <0>        -0.9914
     18 O3          6.2190   -7.7324    1.6731 O.3       1 <0>        -0.9665
     19 P2          6.6214   -4.8061    2.4854 P.3       1 <0>        -0.3052
     20 O4          7.3500   -4.4310    1.1756 O.2       1 <0>        -0.7614
     21 O5          5.7524   -3.6163    2.9503 O.3       1 <0>        -0.7652
     22 P3          8.0910   -5.2778    4.0250 P.3       1 <0>         1.8487
     23 O6          7.3624   -5.6530    5.3347 O.2       1 <0>        -1.0011
     24 O7          8.9600   -6.4677    3.5601 O.3       1 <0>        -1.0006
     25 O8          9.0299   -3.9954    4.2815 O.3       1 <0>        -0.8399
     26 N5          3.4394    2.2293   -0.0193 N.pl3     1 <0>        -0.8198
     27 H1         -0.9693    1.8189    0.0257 H         1 <0>         0.1976
     28 H2          3.4595   -2.9570   -0.0447 H         1 <0>         0.2310
     29 H3         -0.4275   -2.9208   -0.0077 H         1 <0>         0.1664
     30 H4          0.5185   -6.2577    0.8792 H         1 <0>         0.1112
     31 H5          0.5144   -6.2434   -0.9657 H         1 <0>         0.1058
     32 H6          2.8712   -5.3215   -0.9742 H         1 <0>         0.1280
     33 H7          3.4548   -4.3772    1.5588 H         1 <0>         0.0643
     34 H8          2.5093   -5.8125    2.0215 H         1 <0>         0.0569
     35 H9          9.7088   -4.1337    4.9562 H         1 <0>         0.3747
     36 H10         3.3776    3.1973   -0.0138 H         1 <0>         0.4039
     37 H11         4.3086    1.7989   -0.0299 H         1 <0>         0.4232
@<TRIPOS>BOND
     1    1    6 ar
     2    1    2 ar
     3    1   27 1
     4    2    3 ar
     5    3    4 ar
     6    3   26 1
     7    4    9 1
     8    4    5 ar
     9    5    6 ar
    10    5    7 1
    11    7    8 1
    12    7   10 1
    13    8    9 2
    14    8   28 1
    15   10   11 2
    16   10   29 1
    17   11   13 1
    18   11   12 1
    19   12   13 1
    20   12   30 1
    21   12   31 1
    22   13   14 1
    23   13   32 1
    24   14   15 1
    25   14   33 1
    26   14   34 1
    27   15   16 1
    28   16   17 2
    29   16   18 1
    30   16   19 1
    31   19   20 2
    32   19   21 1
    33   19   22 1
    34   22   23 2
    35   22   24 1
    36   22   25 1
    37   25   35 1
    38   26   36 1
    39   26   37 1
@<TRIPOS>MOLECULE
CHEMBL145297__3
   36    38     0     0     0
SMALL
USER_CHARGES

@<TRIPOS>ATOM
      1 C1         -0.0158    1.3121    0.0093 C.ar      1 <0>         0.3306
      2 N1          1.0889    2.0360    0.0026 N.ar      1 <0>        -0.6045
      3 C2          2.2875    1.4624   -0.0120 C.ar      1 <0>         0.5044
      4 C3          2.3582    0.0587   -0.0202 C.ar      1 <0>        -0.0960
      5 C4          1.1544   -0.6658   -0.0126 C.ar      1 <0>         0.2770
      6 N2          0.0021   -0.0041    0.0020 N.ar      1 <0>        -0.5503
      7 N3          1.5112   -1.9932   -0.0224 N.pl3     1 <0>        -0.4109
      8 C5          2.8758   -2.0483   -0.0353 C.2       1 <0>         0.2950
      9 N4          3.3687   -0.8438   -0.0340 N.2       1 <0>        -0.4479
     10 C6          0.6402   -3.0829   -0.0190 C.2       1 <0>         0.0995
     11 C7          1.1205   -4.3108   -0.0296 C.2       1 <0>        -0.2377
     12 C8          0.8810   -5.7986   -0.0406 C.3       1 <0>        -0.0980
     13 C9          2.3059   -5.2412   -0.0457 C.3       1 <0>        -0.0819
     14 C10         3.1249   -5.3662    1.2406 C.3       1 <0>         0.1426
     15 O1          4.2647   -6.1942    1.0010 O.3       1 <0>        -0.6867
     16 P1          5.3500   -6.5426    2.1380 P.3       1 <0>         1.6521
     17 O2          4.6214   -6.9177    3.4477 O.2       1 <0>        -1.0123
     18 O3          6.2190   -7.7324    1.6731 O.3       1 <0>        -0.9904
     19 P2          6.6214   -4.8061    2.4854 P.3       1 <0>        -0.3084
     20 O4          7.3500   -4.4310    1.1756 O.2       1 <0>        -0.7724
     21 O5          5.7524   -3.6163    2.9503 O.3       1 <0>        -0.7751
     22 P3          8.0910   -5.2778    4.0250 P.3       1 <0>         2.0098
     23 O6          7.3521   -5.6583    5.3531 O.2       1 <0>        -1.0824
     24 O7          8.9722   -6.4844    3.5536 O.3       1 <0>        -1.0820
     25 O8          9.0046   -4.0299    4.2747 O.3       1 <0>        -1.0978
     26 N5          3.4394    2.2293   -0.0193 N.pl3     1 <0>        -0.8207
     27 H1         -0.9693    1.8189    0.0257 H         1 <0>         0.1939
     28 H2          3.4595   -2.9570   -0.0447 H         1 <0>         0.2340
     29 H3         -0.4275   -2.9208   -0.0077 H         1 <0>         0.1622
     30 H4          0.5185   -6.2577    0.8792 H         1 <0>         0.1081
     31 H5          0.5144   -6.2434   -0.9657 H         1 <0>         0.1007
     32 H6          2.8712   -5.3215   -0.9742 H         1 <0>         0.1237
     33 H7          3.4548   -4.3772    1.5588 H         1 <0>         0.0558
     34 H8          2.5093   -5.8125    2.0215 H         1 <0>         0.0400
     35 H9          3.3776    3.1973   -0.0138 H         1 <0>         0.4016
     36 H10         4.3086    1.7989   -0.0299 H         1 <0>         0.4244
@<TRIPOS>BOND
     1    1    6 ar
     2    1    2 ar
     3    1   27 1
     4    2    3 ar
     5    3    4 ar
     6    3   26 1
     7    4    9 1
     8    4    5 ar
     9    5    6 ar
    10    5    7 1
    11    7    8 1
    12    7   10 1
    13    8    9 2
    14    8   28 1
    15   10   11 2
    16   10   29 1
    17   11   13 1
    18   11   12 1
    19   12   13 1
    20   12   30 1
    21   12   31 1
    22   13   14 1
    23   13   32 1
    24   14   15 1
    25   14   33 1
    26   14   34 1
    27   15   16 1
    28   16   17 2
    29   16   18 1
    30   16   19 1
    31   19   20 2
    32   19   21 1
    33   19   22 1
    34   22   23 2
    35   22   24 1
    36   22   25 1
    37   26   35 1
    38   26   36 1
@<TRIPOS>MOLECULE
CHEMBL145297__4
   37    39     0     0     0
SMALL
USER_CHARGES

@<TRIPOS>ATOM
      1 C1         -0.0158    1.3121    0.0093 C.ar      1 <0>         0.3403
      2 N1          1.0889    2.0360    0.0026 N.ar      1 <0>        -0.6013
      3 C2          2.2875    1.4624   -0.0120 C.ar      1 <0>         0.5061
      4 C3          2.3582    0.0587   -0.0202 C.ar      1 <0>        -0.0988
      5 C4          1.1544   -0.6658   -0.0126 C.ar      1 <0>         0.2842
      6 N2          0.0021   -0.0041    0.0020 N.ar      1 <0>        -0.5515
      7 N3          1.5112   -1.9932   -0.0224 N.pl3     1 <0>        -0.4149
      8 C5          2.8758   -2.0483   -0.0353 C.2       1 <0>         0.2884
      9 N4          3.3687   -0.8438   -0.0340 N.2       1 <0>        -0.4481
     10 C6          0.6402   -3.0829   -0.0190 C.2       1 <0>         0.1132
     11 C7          1.1205   -4.3108   -0.0296 C.2       1 <0>        -0.2416
     12 C8          0.8810   -5.7986   -0.0406 C.3       1 <0>        -0.0928
     13 C9          2.3059   -5.2412   -0.0457 C.3       1 <0>        -0.0875
     14 C10         3.1249   -5.3662    1.2406 C.3       1 <0>         0.1373
     15 O1          4.2647   -6.1942    1.0010 O.3       1 <0>        -0.6874
     16 P1          5.3500   -6.5426    2.1380 P.3       1 <0>         1.8939
     17 O2          4.6214   -6.9177    3.4477 O.2       1 <0>        -0.9914
     18 O3          6.2190   -7.7324    1.6731 O.3       1 <0>        -0.9665
     19 P2          6.6214   -4.8061    2.4854 P.3       1 <0>        -0.3052
     20 O4          7.3500   -4.4310    1.1756 O.2       1 <0>        -0.7614
     21 O5          5.7524   -3.6163    2.9503 O.3       1 <0>        -0.7652
     22 P3          8.0910   -5.2778    4.0250 P.3       1 <0>         1.8487
     23 O6          7.3624   -5.6530    5.3347 O.2       1 <0>        -1.0011
     24 O7          8.9600   -6.4677    3.5601 O.3       1 <0>        -1.0006
     25 O8          9.0299   -3.9954    4.2815 O.3       1 <0>        -0.8399
     26 N5          3.4394    2.2293   -0.0193 N.pl3     1 <0>        -0.8198
     27 H1         -0.9693    1.8189    0.0257 H         1 <0>         0.1976
     28 H2          3.4595   -2.9570   -0.0447 H         1 <0>         0.2310
     29 H3         -0.4275   -2.9208   -0.0077 H         1 <0>         0.1664
     30 H4          0.5185   -6.2577    0.8792 H         1 <0>         0.1112
     31 H5          0.5144   -6.2434   -0.9657 H         1 <0>         0.1058
     32 H6          2.8712   -5.3215   -0.9742 H         1 <0>         0.1280
     33 H7          3.4548   -4.3772    1.5588 H         1 <0>         0.0643
     34 H8          2.5093   -5.8125    2.0215 H         1 <0>         0.0569
     35 H9          9.7088   -4.1337    4.9562 H         1 <0>         0.3747
     36 H10         3.3776    3.1973   -0.0138 H         1 <0>         0.4039
     37 H11         4.3086    1.7989   -0.0299 H         1 <0>         0.4232
@<TRIPOS>BOND
     1    1    6 ar
     2    1    2 ar
     3    1   27 1
     4    2    3 ar
     5    3    4 ar
     6    3   26 1
     7    4    9 1
     8    4    5 ar
     9    5    6 ar
    10    5    7 1
    11    7    8 1
    12    7   10 1
    13    8    9 2
    14    8   28 1
    15   10   11 2
    16   10   29 1
    17   11   13 1
    18   11   12 1
    19   12   13 1
    20   12   30 1
    21   12   31 1
    22   13   14 1
    23   13   32 1
    24   14   15 1
    25   14   33 1
    26   14   34 1
    27   15   16 1
    28   16   17 2
    29   16   18 1
    30   16   19 1
    31   19   20 2
    32   19   21 1
    33   19   22 1
    34   22   23 2
    35   22   24 1
    36   22   25 1
    37   25   35 1
    38   26   36 1
    39   26   37 1
@<TRIPOS>MOLECULE
CHEMBL145297__5
   36    38     0     0     0
SMALL
USER_CHARGES

@<TRIPOS>ATOM
      1 C1         -0.0158    1.3121    0.0093 C.ar      1 <0>         0.3306
      2 N1          1.0889    2.0360    0.0026 N.ar      1 <0>        -0.6045
      3 C2          2.2875    1.4624   -0.0120 C.ar      1 <0>         0.5044
      4 C3          2.3582    0.0587   -0.0202 C.ar      1 <0>        -0.0960
      5 C4          1.1544   -0.6658   -0.0126 C.ar      1 <0>         0.2770
      6 N2          0.0021   -0.0041    0.0020 N.ar      1 <0>        -0.5503
      7 N3          1.5112   -1.9932   -0.0224 N.pl3     1 <0>        -0.4109
      8 C5          2.8758   -2.0483   -0.0353 C.2       1 <0>         0.2950
      9 N4          3.3687   -0.8438   -0.0340 N.2       1 <0>        -0.4479
     10 C6          0.6402   -3.0829   -0.0190 C.2       1 <0>         0.0995
     11 C7          1.1205   -4.3108   -0.0296 C.2       1 <0>        -0.2377
     12 C8          0.8810   -5.7986   -0.0406 C.3       1 <0>        -0.0980
     13 C9          2.3059   -5.2412   -0.0457 C.3       1 <0>        -0.0819
     14 C10         3.1249   -5.3662    1.2406 C.3       1 <0>         0.1426
     15 O1          4.2647   -6.1942    1.0010 O.3       1 <0>        -0.6867
     16 P1          5.3500   -6.5426    2.1380 P.3       1 <0>         1.6521
     17 O2          4.6214   -6.9177    3.4477 O.2       1 <0>        -1.0123
     18 O3          6.2190   -7.7324    1.6731 O.3       1 <0>        -0.9904
     19 P2          6.6214   -4.8061    2.4854 P.3       1 <0>        -0.3084
     20 O4          7.3500   -4.4310    1.1756 O.2       1 <0>        -0.7724
     21 O5          5.7524   -3.6163    2.9503 O.3       1 <0>        -0.7751
     22 P3          8.0910   -5.2778    4.0250 P.3       1 <0>         2.0098
     23 O6          7.3521   -5.6583    5.3531 O.2       1 <0>        -1.0824
     24 O7          8.9722   -6.4844    3.5536 O.3       1 <0>        -1.0820
     25 O8          9.0046   -4.0299    4.2747 O.3       1 <0>        -1.0978
     26 N5          3.4394    2.2293   -0.0193 N.pl3     1 <0>        -0.8207
     27 H1         -0.9693    1.8189    0.0257 H         1 <0>         0.1939
     28 H2          3.4595   -2.9570   -0.0447 H         1 <0>         0.2340
     29 H3         -0.4275   -2.9208   -0.0077 H         1 <0>         0.1622
     30 H4          0.5185   -6.2577    0.8792 H         1 <0>         0.1081
     31 H5          0.5144   -6.2434   -0.9657 H         1 <0>         0.1007
     32 H6          2.8712   -5.3215   -0.9742 H         1 <0>         0.1237
     33 H7          3.4548   -4.3772    1.5588 H         1 <0>         0.0558
     34 H8          2.5093   -5.8125    2.0215 H         1 <0>         0.0400
     35 H9          3.3776    3.1973   -0.0138 H         1 <0>         0.4016
     36 H10         4.3086    1.7989   -0.0299 H         1 <0>         0.4244
@<TRIPOS>BOND
     1    1    6 ar
     2    1    2 ar
     3    1   27 1
     4    2    3 ar
     5    3    4 ar
     6    3   26 1
     7    4    9 1
     8    4    5 ar
     9    5    6 ar
    10    5    7 1
    11    7    8 1
    12    7   10 1
    13    8    9 2
    14    8   28 1
    15   10   11 2
    16   10   29 1
    17   11   13 1
    18   11   12 1
    19   12   13 1
    20   12   30 1
    21   12   31 1
    22   13   14 1
    23   13   32 1
    24   14   15 1
    25   14   33 1
    26   14   34 1
    27   15   16 1
    28   16   17 2
    29   16   18 1
    30   16   19 1
    31   19   20 2
    32   19   21 1
    33   19   22 1
    34   22   23 2
    35   22   24 1
    36   22   25 1
    37   26   35 1
    38   26   36 1
@<TRIPOS>MOLECULE
CHEMBL145297__6
   37    39     0     0     0
SMALL
USER_CHARGES

@<TRIPOS>ATOM
      1 C1         -0.0158    1.3121    0.0093 C.ar      1 <0>         0.3403
      2 N1          1.0889    2.0360    0.0026 N.ar      1 <0>        -0.6013
      3 C2          2.2875    1.4624   -0.0120 C.ar      1 <0>         0.5061
      4 C3          2.3582    0.0587   -0.0202 C.ar      1 <0>        -0.0988
      5 C4          1.1544   -0.6658   -0.0126 C.ar      1 <0>         0.2842
      6 N2          0.0021   -0.0041    0.0020 N.ar      1 <0>        -0.5515
      7 N3          1.5112   -1.9932   -0.0224 N.pl3     1 <0>        -0.4149
      8 C5          2.8758   -2.0483   -0.0353 C.2       1 <0>         0.2884
      9 N4          3.3687   -0.8438   -0.0340 N.2       1 <0>        -0.4481
     10 C6          0.6402   -3.0829   -0.0190 C.2       1 <0>         0.1132
     11 C7          1.1205   -4.3108   -0.0296 C.2       1 <0>        -0.2416
     12 C8          0.8810   -5.7986   -0.0406 C.3       1 <0>        -0.0928
     13 C9          2.3059   -5.2412   -0.0457 C.3       1 <0>        -0.0875
     14 C10         3.1249   -5.3662    1.2406 C.3       1 <0>         0.1373
     15 O1          4.2647   -6.1942    1.0010 O.3       1 <0>        -0.6874
     16 P1          5.3500   -6.5426    2.1380 P.3       1 <0>         1.8939
     17 O2          4.6214   -6.9177    3.4477 O.2       1 <0>        -0.9914
     18 O3          6.2190   -7.7324    1.6731 O.3       1 <0>        -0.9665
     19 P2          6.6214   -4.8061    2.4854 P.3       1 <0>        -0.3052
     20 O4          7.3500   -4.4310    1.1756 O.2       1 <0>        -0.7614
     21 O5          5.7524   -3.6163    2.9503 O.3       1 <0>        -0.7652
     22 P3          8.0910   -5.2778    4.0250 P.3       1 <0>         1.8487
     23 O6          7.3624   -5.6530    5.3347 O.2       1 <0>        -1.0011
     24 O7          8.9600   -6.4677    3.5601 O.3       1 <0>        -1.0006
     25 O8          9.0299   -3.9954    4.2815 O.3       1 <0>        -0.8399
     26 N5          3.4394    2.2293   -0.0193 N.pl3     1 <0>        -0.8198
     27 H1         -0.9693    1.8189    0.0257 H         1 <0>         0.1976
     28 H2          3.4595   -2.9570   -0.0447 H         1 <0>         0.2310
     29 H3         -0.4275   -2.9208   -0.0077 H         1 <0>         0.1664
     30 H4          0.5185   -6.2577    0.8792 H         1 <0>         0.1112
     31 H5          0.5144   -6.2434   -0.9657 H         1 <0>         0.1058
     32 H6          2.8712   -5.3215   -0.9742 H         1 <0>         0.1280
     33 H7          3.4548   -4.3772    1.5588 H         1 <0>         0.0643
     34 H8          2.5093   -5.8125    2.0215 H         1 <0>         0.0569
     35 H9          9.7088   -4.1337    4.9562 H         1 <0>         0.3747
     36 H10         3.3776    3.1973   -0.0138 H         1 <0>         0.4039
     37 H11         4.3086    1.7989   -0.0299 H         1 <0>         0.4232
@<TRIPOS>BOND
     1    1    6 ar
     2    1    2 ar
     3    1   27 1
     4    2    3 ar
     5    3    4 ar
     6    3   26 1
     7    4    9 1
     8    4    5 ar
     9    5    6 ar
    10    5    7 1
    11    7    8 1
    12    7   10 1
    13    8    9 2
    14    8   28 1
    15   10   11 2
    16   10   29 1
    17   11   13 1
    18   11   12 1
    19   12   13 1
    20   12   30 1
    21   12   31 1
    22   13   14 1
    23   13   32 1
    24   14   15 1
    25   14   33 1
    26   14   34 1
    27   15   16 1
    28   16   17 2
    29   16   18 1
    30   16   19 1
    31   19   20 2
    32   19   21 1
    33   19   22 1
    34   22   23 2
    35   22   24 1
    36   22   25 1
    37   25   35 1
    38   26   36 1
    39   26   37 1
@<TRIPOS>MOLECULE
CHEMBL145297__7
   36    38     0     0     0
SMALL
USER_CHARGES

@<TRIPOS>ATOM
      1 C1         -0.0158    1.3121    0.0093 C.ar      1 <0>         0.3306
      2 N1          1.0889    2.0360    0.0026 N.ar      1 <0>        -0.6045
      3 C2          2.2875    1.4624   -0.0120 C.ar      1 <0>         0.5044
      4 C3          2.3582    0.0587   -0.0202 C.ar      1 <0>        -0.0960
      5 C4          1.1544   -0.6658   -0.0126 C.ar      1 <0>         0.2770
      6 N2          0.0021   -0.0041    0.0020 N.ar      1 <0>        -0.5503
      7 N3          1.5112   -1.9932   -0.0224 N.pl3     1 <0>        -0.4109
      8 C5          2.8758   -2.0483   -0.0353 C.2       1 <0>         0.2950
      9 N4          3.3687   -0.8438   -0.0340 N.2       1 <0>        -0.4479
     10 C6          0.6402   -3.0829   -0.0190 C.2       1 <0>         0.0995
     11 C7          1.1205   -4.3108   -0.0296 C.2       1 <0>        -0.2377
     12 C8          0.8810   -5.7986   -0.0406 C.3       1 <0>        -0.0980
     13 C9          2.3059   -5.2412   -0.0457 C.3       1 <0>        -0.0819
     14 C10         3.1249   -5.3662    1.2406 C.3       1 <0>         0.1426
     15 O1          4.2647   -6.1942    1.0010 O.3       1 <0>        -0.6867
     16 P1          5.3500   -6.5426    2.1380 P.3       1 <0>         1.6521
     17 O2          4.6214   -6.9177    3.4477 O.2       1 <0>        -1.0123
     18 O3          6.2190   -7.7324    1.6731 O.3       1 <0>        -0.9904
     19 P2          6.6214   -4.8061    2.4854 P.3       1 <0>        -0.3084
     20 O4          7.3500   -4.4310    1.1756 O.2       1 <0>        -0.7724
     21 O5          5.7524   -3.6163    2.9503 O.3       1 <0>        -0.7751
     22 P3          8.0910   -5.2778    4.0250 P.3       1 <0>         2.0098
     23 O6          7.3521   -5.6583    5.3531 O.2       1 <0>        -1.0824
     24 O7          8.9722   -6.4844    3.5536 O.3       1 <0>        -1.0820
     25 O8          9.0046   -4.0299    4.2747 O.3       1 <0>        -1.0978
     26 N5          3.4394    2.2293   -0.0193 N.pl3     1 <0>        -0.8207
     27 H1         -0.9693    1.8189    0.0257 H         1 <0>         0.1939
     28 H2          3.4595   -2.9570   -0.0447 H         1 <0>         0.2340
     29 H3         -0.4275   -2.9208   -0.0077 H         1 <0>         0.1622
     30 H4          0.5185   -6.2577    0.8792 H         1 <0>         0.1081
     31 H5          0.5144   -6.2434   -0.9657 H         1 <0>         0.1007
     32 H6          2.8712   -5.3215   -0.9742 H         1 <0>         0.1237
     33 H7          3.4548   -4.3772    1.5588 H         1 <0>         0.0558
     34 H8          2.5093   -5.8125    2.0215 H         1 <0>         0.0400
     35 H9          3.3776    3.1973   -0.0138 H         1 <0>         0.4016
     36 H10         4.3086    1.7989   -0.0299 H         1 <0>         0.4244
@<TRIPOS>BOND
     1    1    6 ar
     2    1    2 ar
     3    1   27 1
     4    2    3 ar
     5    3    4 ar
     6    3   26 1
     7    4    9 1
     8    4    5 ar
     9    5    6 ar
    10    5    7 1
    11    7    8 1
    12    7   10 1
    13    8    9 2
    14    8   28 1
    15   10   11 2
    16   10   29 1
    17   11   13 1
    18   11   12 1
    19   12   13 1
    20   12   30 1
    21   12   31 1
    22   13   14 1
    23   13   32 1
    24   14   15 1
    25   14   33 1
    26   14   34 1
    27   15   16 1
    28   16   17 2
    29   16   18 1
    30   16   19 1
    31   19   20 2
    32   19   21 1
    33   19   22 1
    34   22   23 2
    35   22   24 1
    36   22   25 1
    37   26   35 1
    38   26   36 1
@<TRIPOS>MOLECULE
CHEMBL145297__8
   37    39     0     0     0
SMALL
USER_CHARGES

@<TRIPOS>ATOM
      1 C1         -0.0158    1.3121    0.0093 C.ar      1 <0>         0.3451
      2 N1          1.0889    2.0360    0.0026 N.ar      1 <0>        -0.5997
      3 C2          2.2875    1.4624   -0.0120 C.ar      1 <0>         0.5057
      4 C3          2.3582    0.0587   -0.0202 C.ar      1 <0>        -0.1020
      5 C4          1.1544   -0.6658   -0.0126 C.ar      1 <0>         0.2887
      6 N2          0.0021   -0.0041    0.0020 N.ar      1 <0>        -0.5494
      7 N3          1.5112   -1.9932   -0.0224 N.pl3     1 <0>        -0.4082
      8 C5          2.8758   -2.0483   -0.0353 C.2       1 <0>         0.2762
      9 N4          3.3687   -0.8438   -0.0340 N.2       1 <0>        -0.4606
     10 C6          0.6402   -3.0829   -0.0190 C.2       1 <0>         0.0990
     11 C7          1.1205   -4.3108   -0.0296 C.2       1 <0>        -0.2290
     12 C8          0.8810   -5.7986   -0.0406 C.3       1 <0>        -0.0912
     13 C9          2.3059   -5.2412   -0.0457 C.3       1 <0>        -0.0886
     14 C10         3.0994   -5.3539   -1.3490 C.3       1 <0>         0.1371
     15 O1          4.2435   -6.1840   -1.1398 O.3       1 <0>        -0.6876
     16 P1          5.3062   -6.5215   -2.3012 P.3       1 <0>         1.9005
     17 O2          5.6566   -5.2282   -3.0704 O.2       1 <0>        -0.9895
     18 O3          6.5885   -7.1094   -1.6711 O.3       1 <0>        -0.9659
     19 P2          4.4413   -7.9739   -3.6778 P.3       1 <0>        -0.3138
     20 O4          4.0909   -9.2672   -2.9087 O.2       1 <0>        -0.7630
     21 O5          3.1589   -7.3860   -4.3079 O.3       1 <0>        -0.7691
     22 P3          5.8801   -8.4308   -5.2505 P.3       1 <0>         1.8529
     23 O6          6.2304   -7.1375   -6.0196 O.2       1 <0>        -1.0003
     24 O7          7.1624   -9.0187   -4.6204 O.3       1 <0>        -1.0001
     25 O8          5.2413   -9.5035   -6.2671 O.3       1 <0>        -0.8406
     26 N5          3.4394    2.2293   -0.0193 N.pl3     1 <0>        -0.8213
     27 H1         -0.9693    1.8189    0.0257 H         1 <0>         0.1993
     28 H2          3.4595   -2.9570   -0.0447 H         1 <0>         0.2302
     29 H3         -0.4275   -2.9208   -0.0077 H         1 <0>         0.1676
     30 H4          0.5185   -6.2577    0.8792 H         1 <0>         0.1085
     31 H5          0.5144   -6.2434   -0.9657 H         1 <0>         0.1181
     32 H6          2.8894   -5.3302    0.8707 H         1 <0>         0.1284
     33 H7          2.4684   -5.7929   -2.1217 H         1 <0>         0.0700
     34 H8          3.4229   -4.3619   -1.6642 H         1 <0>         0.0515
     35 H9          5.8276   -9.7539   -6.9942 H         1 <0>         0.3752
     36 H10         3.3776    3.1973   -0.0138 H         1 <0>         0.4049
     37 H11         4.3086    1.7989   -0.0299 H         1 <0>         0.4207
@<TRIPOS>BOND
     1    1    6 ar
     2    1    2 ar
     3    1   27 1
     4    2    3 ar
     5    3    4 ar
     6    3   26 1
     7    4    9 1
     8    4    5 ar
     9    5    6 ar
    10    5    7 1
    11    7    8 1
    12    7   10 1
    13    8    9 2
    14    8   28 1
    15   10   11 2
    16   10   29 1
    17   11   13 1
    18   11   12 1
    19   12   13 1
    20   12   30 1
    21   12   31 1
    22   13   14 1
    23   13   32 1
    24   14   15 1
    25   14   33 1
    26   14   34 1
    27   15   16 1
    28   16   17 2
    29   16   18 1
    30   16   19 1
    31   19   20 2
    32   19   21 1
    33   19   22 1
    34   22   23 2
    35   22   24 1
    36   22   25 1
    37   25   35 1
    38   26   36 1
    39   26   37 1
@<TRIPOS>MOLECULE
CHEMBL145297__9
   36    38     0     0     0
SMALL
USER_CHARGES

@<TRIPOS>ATOM
      1 C1         -0.0158    1.3121    0.0093 C.ar      1 <0>         0.3355
      2 N1          1.0889    2.0360    0.0026 N.ar      1 <0>        -0.6023
      3 C2          2.2875    1.4624   -0.0120 C.ar      1 <0>         0.5030
      4 C3          2.3582    0.0587   -0.0202 C.ar      1 <0>        -0.1003
      5 C4          1.1544   -0.6658   -0.0126 C.ar      1 <0>         0.2824
      6 N2          0.0021   -0.0041    0.0020 N.ar      1 <0>        -0.5463
      7 N3          1.5112   -1.9932   -0.0224 N.pl3     1 <0>        -0.4018
      8 C5          2.8758   -2.0483   -0.0353 C.2       1 <0>         0.2811
      9 N4          3.3687   -0.8438   -0.0340 N.2       1 <0>        -0.4647
     10 C6          0.6402   -3.0829   -0.0190 C.2       1 <0>         0.0804
     11 C7          1.1205   -4.3108   -0.0296 C.2       1 <0>        -0.2227
     12 C8          0.8810   -5.7986   -0.0406 C.3       1 <0>        -0.0940
     13 C9          2.3059   -5.2412   -0.0457 C.3       1 <0>        -0.0841
     14 C10         3.0994   -5.3539   -1.3490 C.3       1 <0>         0.1422
     15 O1          4.2435   -6.1840   -1.1398 O.3       1 <0>        -0.6868
     16 P1          5.3062   -6.5215   -2.3012 P.3       1 <0>         1.6646
     17 O2          5.6566   -5.2282   -3.0704 O.2       1 <0>        -1.0100
     18 O3          6.5885   -7.1094   -1.6711 O.3       1 <0>        -0.9895
     19 P2          4.4413   -7.9739   -3.6778 P.3       1 <0>        -0.3172
     20 O4          4.0909   -9.2672   -2.9087 O.2       1 <0>        -0.7741
     21 O5          3.1589   -7.3860   -4.3079 O.3       1 <0>        -0.7793
     22 P3          5.8801   -8.4308   -5.2505 P.3       1 <0>         2.0097
     23 O6          6.2354   -7.1194   -6.0304 O.2       1 <0>        -1.0814
     24 O7          7.1804   -9.0270   -4.6115 O.3       1 <0>        -1.0814
     25 O8          5.2585   -9.4746   -6.2398 O.3       1 <0>        -1.0980
     26 N5          3.4394    2.2293   -0.0193 N.pl3     1 <0>        -0.8235
     27 H1         -0.9693    1.8189    0.0257 H         1 <0>         0.1963
     28 H2          3.4595   -2.9570   -0.0447 H         1 <0>         0.2318
     29 H3         -0.4275   -2.9208   -0.0077 H         1 <0>         0.1642
     30 H4          0.5185   -6.2577    0.8792 H         1 <0>         0.1047
     31 H5          0.5144   -6.2434   -0.9657 H         1 <0>         0.1185
     32 H6          2.8894   -5.3302    0.8707 H         1 <0>         0.1230
     33 H7          2.4684   -5.7929   -2.1217 H         1 <0>         0.0612
     34 H8          3.4229   -4.3619   -1.6642 H         1 <0>         0.0359
     35 H9          3.3776    3.1973   -0.0138 H         1 <0>         0.4026
     36 H10         4.3086    1.7989   -0.0299 H         1 <0>         0.4204
@<TRIPOS>BOND
     1    1    6 ar
     2    1    2 ar
     3    1   27 1
     4    2    3 ar
     5    3    4 ar
     6    3   26 1
     7    4    9 1
     8    4    5 ar
     9    5    6 ar
    10    5    7 1
    11    7    8 1
    12    7   10 1
    13    8    9 2
    14    8   28 1
    15   10   11 2
    16   10   29 1
    17   11   13 1
    18   11   12 1
    19   12   13 1
    20   12   30 1
    21   12   31 1
    22   13   14 1
    23   13   32 1
    24   14   15 1
    25   14   33 1
    26   14   34 1
    27   15   16 1
    28   16   17 2
    29   16   18 1
    30   16   19 1
    31   19   20 2
    32   19   21 1
    33   19   22 1
    34   22   23 2
    35   22   24 1
    36   22   25 1
    37   26   35 1
    38   26   36 1
@<TRIPOS>MOLECULE
CHEMBL145297__10
   37    39     0     0     0
SMALL
USER_CHARGES

@<TRIPOS>ATOM
      1 C1         -0.0158    1.3121    0.0093 C.ar      1 <0>         0.3451
      2 N1          1.0889    2.0360    0.0026 N.ar      1 <0>        -0.5997
      3 C2          2.2875    1.4624   -0.0120 C.ar      1 <0>         0.5057
      4 C3          2.3582    0.0587   -0.0202 C.ar      1 <0>        -0.1020
      5 C4          1.1544   -0.6658   -0.0126 C.ar      1 <0>         0.2887
      6 N2          0.0021   -0.0041    0.0020 N.ar      1 <0>        -0.5494
      7 N3          1.5112   -1.9932   -0.0224 N.pl3     1 <0>        -0.4082
      8 C5          2.8758   -2.0483   -0.0353 C.2       1 <0>         0.2762
      9 N4          3.3687   -0.8438   -0.0340 N.2       1 <0>        -0.4606
     10 C6          0.6402   -3.0829   -0.0190 C.2       1 <0>         0.0990
     11 C7          1.1205   -4.3108   -0.0296 C.2       1 <0>        -0.2290
     12 C8          0.8810   -5.7986   -0.0406 C.3       1 <0>        -0.0912
     13 C9          2.3059   -5.2412   -0.0457 C.3       1 <0>        -0.0886
     14 C10         3.0994   -5.3539   -1.3490 C.3       1 <0>         0.1371
     15 O1          4.2435   -6.1840   -1.1398 O.3       1 <0>        -0.6876
     16 P1          5.3062   -6.5215   -2.3012 P.3       1 <0>         1.9005
     17 O2          5.6566   -5.2282   -3.0704 O.2       1 <0>        -0.9895
     18 O3          6.5885   -7.1094   -1.6711 O.3       1 <0>        -0.9659
     19 P2          4.4413   -7.9739   -3.6778 P.3       1 <0>        -0.3138
     20 O4          4.0909   -9.2672   -2.9087 O.2       1 <0>        -0.7630
     21 O5          3.1589   -7.3860   -4.3079 O.3       1 <0>        -0.7691
     22 P3          5.8801   -8.4308   -5.2505 P.3       1 <0>         1.8529
     23 O6          6.2304   -7.1375   -6.0196 O.2       1 <0>        -1.0003
     24 O7          7.1624   -9.0187   -4.6204 O.3       1 <0>        -1.0001
     25 O8          5.2413   -9.5035   -6.2671 O.3       1 <0>        -0.8406
     26 N5          3.4394    2.2293   -0.0193 N.pl3     1 <0>        -0.8213
     27 H1         -0.9693    1.8189    0.0257 H         1 <0>         0.1993
     28 H2          3.4595   -2.9570   -0.0447 H         1 <0>         0.2302
     29 H3         -0.4275   -2.9208   -0.0077 H         1 <0>         0.1676
     30 H4          0.5185   -6.2577    0.8792 H         1 <0>         0.1085
     31 H5          0.5144   -6.2434   -0.9657 H         1 <0>         0.1181
     32 H6          2.8894   -5.3302    0.8707 H         1 <0>         0.1284
     33 H7          2.4684   -5.7929   -2.1217 H         1 <0>         0.0700
     34 H8          3.4229   -4.3619   -1.6642 H         1 <0>         0.0515
     35 H9          5.8276   -9.7539   -6.9942 H         1 <0>         0.3752
     36 H10         3.3776    3.1973   -0.0138 H         1 <0>         0.4049
     37 H11         4.3086    1.7989   -0.0299 H         1 <0>         0.4207
@<TRIPOS>BOND
     1    1    6 ar
     2    1    2 ar
     3    1   27 1
     4    2    3 ar
     5    3    4 ar
     6    3   26 1
     7    4    9 1
     8    4    5 ar
     9    5    6 ar
    10    5    7 1
    11    7    8 1
    12    7   10 1
    13    8    9 2
    14    8   28 1
    15   10   11 2
    16   10   29 1
    17   11   13 1
    18   11   12 1
    19   12   13 1
    20   12   30 1
    21   12   31 1
    22   13   14 1
    23   13   32 1
    24   14   15 1
    25   14   33 1
    26   14   34 1
    27   15   16 1
    28   16   17 2
    29   16   18 1
    30   16   19 1
    31   19   20 2
    32   19   21 1
    33   19   22 1
    34   22   23 2
    35   22   24 1
    36   22   25 1
    37   25   35 1
    38   26   36 1
    39   26   37 1
@<TRIPOS>MOLECULE
CHEMBL145297__11
   36    38     0     0     0
SMALL
USER_CHARGES

@<TRIPOS>ATOM
      1 C1         -0.0158    1.3121    0.0093 C.ar      1 <0>         0.3355
      2 N1          1.0889    2.0360    0.0026 N.ar      1 <0>        -0.6023
      3 C2          2.2875    1.4624   -0.0120 C.ar      1 <0>         0.5030
      4 C3          2.3582    0.0587   -0.0202 C.ar      1 <0>        -0.1003
      5 C4          1.1544   -0.6658   -0.0126 C.ar      1 <0>         0.2824
      6 N2          0.0021   -0.0041    0.0020 N.ar      1 <0>        -0.5463
      7 N3          1.5112   -1.9932   -0.0224 N.pl3     1 <0>        -0.4018
      8 C5          2.8758   -2.0483   -0.0353 C.2       1 <0>         0.2811
      9 N4          3.3687   -0.8438   -0.0340 N.2       1 <0>        -0.4647
     10 C6          0.6402   -3.0829   -0.0190 C.2       1 <0>         0.0804
     11 C7          1.1205   -4.3108   -0.0296 C.2       1 <0>        -0.2227
     12 C8          0.8810   -5.7986   -0.0406 C.3       1 <0>        -0.0940
     13 C9          2.3059   -5.2412   -0.0457 C.3       1 <0>        -0.0841
     14 C10         3.0994   -5.3539   -1.3490 C.3       1 <0>         0.1422
     15 O1          4.2435   -6.1840   -1.1398 O.3       1 <0>        -0.6868
     16 P1          5.3062   -6.5215   -2.3012 P.3       1 <0>         1.6646
     17 O2          5.6566   -5.2282   -3.0704 O.2       1 <0>        -1.0100
     18 O3          6.5885   -7.1094   -1.6711 O.3       1 <0>        -0.9895
     19 P2          4.4413   -7.9739   -3.6778 P.3       1 <0>        -0.3172
     20 O4          4.0909   -9.2672   -2.9087 O.2       1 <0>        -0.7741
     21 O5          3.1589   -7.3860   -4.3079 O.3       1 <0>        -0.7793
     22 P3          5.8801   -8.4308   -5.2505 P.3       1 <0>         2.0097
     23 O6          6.2354   -7.1194   -6.0304 O.2       1 <0>        -1.0814
     24 O7          7.1804   -9.0270   -4.6115 O.3       1 <0>        -1.0814
     25 O8          5.2585   -9.4746   -6.2398 O.3       1 <0>        -1.0980
     26 N5          3.4394    2.2293   -0.0193 N.pl3     1 <0>        -0.8235
     27 H1         -0.9693    1.8189    0.0257 H         1 <0>         0.1963
     28 H2          3.4595   -2.9570   -0.0447 H         1 <0>         0.2318
     29 H3         -0.4275   -2.9208   -0.0077 H         1 <0>         0.1642
     30 H4          0.5185   -6.2577    0.8792 H         1 <0>         0.1047
     31 H5          0.5144   -6.2434   -0.9657 H         1 <0>         0.1185
     32 H6          2.8894   -5.3302    0.8707 H         1 <0>         0.1230
     33 H7          2.4684   -5.7929   -2.1217 H         1 <0>         0.0612
     34 H8          3.4229   -4.3619   -1.6642 H         1 <0>         0.0359
     35 H9          3.3776    3.1973   -0.0138 H         1 <0>         0.4026
     36 H10         4.3086    1.7989   -0.0299 H         1 <0>         0.4204
@<TRIPOS>BOND
     1    1    6 ar
     2    1    2 ar
     3    1   27 1
     4    2    3 ar
     5    3    4 ar
     6    3   26 1
     7    4    9 1
     8    4    5 ar
     9    5    6 ar
    10    5    7 1
    11    7    8 1
    12    7   10 1
    13    8    9 2
    14    8   28 1
    15   10   11 2
    16   10   29 1
    17   11   13 1
    18   11   12 1
    19   12   13 1
    20   12   30 1
    21   12   31 1
    22   13   14 1
    23   13   32 1
    24   14   15 1
    25   14   33 1
    26   14   34 1
    27   15   16 1
    28   16   17 2
    29   16   18 1
    30   16   19 1
    31   19   20 2
    32   19   21 1
    33   19   22 1
    34   22   23 2
    35   22   24 1
    36   22   25 1
    37   26   35 1
    38   26   36 1
@<TRIPOS>MOLECULE
CHEMBL145297__12
   37    39     0     0     0
SMALL
USER_CHARGES

@<TRIPOS>ATOM
      1 C1         -0.0158    1.3121    0.0093 C.ar      1 <0>         0.3451
      2 N1          1.0889    2.0360    0.0026 N.ar      1 <0>        -0.5997
      3 C2          2.2875    1.4624   -0.0120 C.ar      1 <0>         0.5057
      4 C3          2.3582    0.0587   -0.0202 C.ar      1 <0>        -0.1020
      5 C4          1.1544   -0.6658   -0.0126 C.ar      1 <0>         0.2887
      6 N2          0.0021   -0.0041    0.0020 N.ar      1 <0>        -0.5494
      7 N3          1.5112   -1.9932   -0.0224 N.pl3     1 <0>        -0.4082
      8 C5          2.8758   -2.0483   -0.0353 C.2       1 <0>         0.2762
      9 N4          3.3687   -0.8438   -0.0340 N.2       1 <0>        -0.4606
     10 C6          0.6402   -3.0829   -0.0190 C.2       1 <0>         0.0990
     11 C7          1.1205   -4.3108   -0.0296 C.2       1 <0>        -0.2290
     12 C8          0.8810   -5.7986   -0.0406 C.3       1 <0>        -0.0912
     13 C9          2.3059   -5.2412   -0.0457 C.3       1 <0>        -0.0886
     14 C10         3.0994   -5.3539   -1.3490 C.3       1 <0>         0.1371
     15 O1          4.2435   -6.1840   -1.1398 O.3       1 <0>        -0.6876
     16 P1          5.3062   -6.5215   -2.3012 P.3       1 <0>         1.9005
     17 O2          5.6566   -5.2282   -3.0704 O.2       1 <0>        -0.9895
     18 O3          6.5885   -7.1094   -1.6711 O.3       1 <0>        -0.9659
     19 P2          4.4413   -7.9739   -3.6778 P.3       1 <0>        -0.3138
     20 O4          4.0909   -9.2672   -2.9087 O.2       1 <0>        -0.7630
     21 O5          3.1589   -7.3860   -4.3079 O.3       1 <0>        -0.7691
     22 P3          5.8801   -8.4308   -5.2505 P.3       1 <0>         1.8529
     23 O6          6.2304   -7.1375   -6.0196 O.2       1 <0>        -1.0003
     24 O7          7.1624   -9.0187   -4.6204 O.3       1 <0>        -1.0001
     25 O8          5.2413   -9.5035   -6.2671 O.3       1 <0>        -0.8406
     26 N5          3.4394    2.2293   -0.0193 N.pl3     1 <0>        -0.8213
     27 H1         -0.9693    1.8189    0.0257 H         1 <0>         0.1993
     28 H2          3.4595   -2.9570   -0.0447 H         1 <0>         0.2302
     29 H3         -0.4275   -2.9208   -0.0077 H         1 <0>         0.1676
     30 H4          0.5185   -6.2577    0.8792 H         1 <0>         0.1085
     31 H5          0.5144   -6.2434   -0.9657 H         1 <0>         0.1181
     32 H6          2.8894   -5.3302    0.8707 H         1 <0>         0.1284
     33 H7          2.4684   -5.7929   -2.1217 H         1 <0>         0.0700
     34 H8          3.4229   -4.3619   -1.6642 H         1 <0>         0.0515
     35 H9          5.8276   -9.7539   -6.9942 H         1 <0>         0.3752
     36 H10         3.3776    3.1973   -0.0138 H         1 <0>         0.4049
     37 H11         4.3086    1.7989   -0.0299 H         1 <0>         0.4207
@<TRIPOS>BOND
     1    1    6 ar
     2    1    2 ar
     3    1   27 1
     4    2    3 ar
     5    3    4 ar
     6    3   26 1
     7    4    9 1
     8    4    5 ar
     9    5    6 ar
    10    5    7 1
    11    7    8 1
    12    7   10 1
    13    8    9 2
    14    8   28 1
    15   10   11 2
    16   10   29 1
    17   11   13 1
    18   11   12 1
    19   12   13 1
    20   12   30 1
    21   12   31 1
    22   13   14 1
    23   13   32 1
    24   14   15 1
    25   14   33 1
    26   14   34 1
    27   15   16 1
    28   16   17 2
    29   16   18 1
    30   16   19 1
    31   19   20 2
    32   19   21 1
    33   19   22 1
    34   22   23 2
    35   22   24 1
    36   22   25 1
    37   25   35 1
    38   26   36 1
    39   26   37 1
@<TRIPOS>MOLECULE
CHEMBL145297__13
   36    38     0     0     0
SMALL
USER_CHARGES

@<TRIPOS>ATOM
      1 C1         -0.0158    1.3121    0.0093 C.ar      1 <0>         0.3355
      2 N1          1.0889    2.0360    0.0026 N.ar      1 <0>        -0.6023
      3 C2          2.2875    1.4624   -0.0120 C.ar      1 <0>         0.5030
      4 C3          2.3582    0.0587   -0.0202 C.ar      1 <0>        -0.1003
      5 C4          1.1544   -0.6658   -0.0126 C.ar      1 <0>         0.2824
      6 N2          0.0021   -0.0041    0.0020 N.ar      1 <0>        -0.5463
      7 N3          1.5112   -1.9932   -0.0224 N.pl3     1 <0>        -0.4018
      8 C5          2.8758   -2.0483   -0.0353 C.2       1 <0>         0.2811
      9 N4          3.3687   -0.8438   -0.0340 N.2       1 <0>        -0.4647
     10 C6          0.6402   -3.0829   -0.0190 C.2       1 <0>         0.0804
     11 C7          1.1205   -4.3108   -0.0296 C.2       1 <0>        -0.2227
     12 C8          0.8810   -5.7986   -0.0406 C.3       1 <0>        -0.0940
     13 C9          2.3059   -5.2412   -0.0457 C.3       1 <0>        -0.0841
     14 C10         3.0994   -5.3539   -1.3490 C.3       1 <0>         0.1422
     15 O1          4.2435   -6.1840   -1.1398 O.3       1 <0>        -0.6868
     16 P1          5.3062   -6.5215   -2.3012 P.3       1 <0>         1.6646
     17 O2          5.6566   -5.2282   -3.0704 O.2       1 <0>        -1.0100
     18 O3          6.5885   -7.1094   -1.6711 O.3       1 <0>        -0.9895
     19 P2          4.4413   -7.9739   -3.6778 P.3       1 <0>        -0.3172
     20 O4          4.0909   -9.2672   -2.9087 O.2       1 <0>        -0.7741
     21 O5          3.1589   -7.3860   -4.3079 O.3       1 <0>        -0.7793
     22 P3          5.8801   -8.4308   -5.2505 P.3       1 <0>         2.0097
     23 O6          6.2354   -7.1194   -6.0304 O.2       1 <0>        -1.0814
     24 O7          7.1804   -9.0270   -4.6115 O.3       1 <0>        -1.0814
     25 O8          5.2585   -9.4746   -6.2398 O.3       1 <0>        -1.0980
     26 N5          3.4394    2.2293   -0.0193 N.pl3     1 <0>        -0.8235
     27 H1         -0.9693    1.8189    0.0257 H         1 <0>         0.1963
     28 H2          3.4595   -2.9570   -0.0447 H         1 <0>         0.2318
     29 H3         -0.4275   -2.9208   -0.0077 H         1 <0>         0.1642
     30 H4          0.5185   -6.2577    0.8792 H         1 <0>         0.1047
     31 H5          0.5144   -6.2434   -0.9657 H         1 <0>         0.1185
     32 H6          2.8894   -5.3302    0.8707 H         1 <0>         0.1230
     33 H7          2.4684   -5.7929   -2.1217 H         1 <0>         0.0612
     34 H8          3.4229   -4.3619   -1.6642 H         1 <0>         0.0359
     35 H9          3.3776    3.1973   -0.0138 H         1 <0>         0.4026
     36 H10         4.3086    1.7989   -0.0299 H         1 <0>         0.4204
@<TRIPOS>BOND
     1    1    6 ar
     2    1    2 ar
     3    1   27 1
     4    2    3 ar
     5    3    4 ar
     6    3   26 1
     7    4    9 1
     8    4    5 ar
     9    5    6 ar
    10    5    7 1
    11    7    8 1
    12    7   10 1
    13    8    9 2
    14    8   28 1
    15   10   11 2
    16   10   29 1
    17   11   13 1
    18   11   12 1
    19   12   13 1
    20   12   30 1
    21   12   31 1
    22   13   14 1
    23   13   32 1
    24   14   15 1
    25   14   33 1
    26   14   34 1
    27   15   16 1
    28   16   17 2
    29   16   18 1
    30   16   19 1
    31   19   20 2
    32   19   21 1
    33   19   22 1
    34   22   23 2
    35   22   24 1
    36   22   25 1
    37   26   35 1
    38   26   36 1
@<TRIPOS>MOLECULE
CHEMBL145297__14
   37    39     0     0     0
SMALL
USER_CHARGES

@<TRIPOS>ATOM
      1 C1         -0.0158    1.3121    0.0093 C.ar      1 <0>         0.3451
      2 N1          1.0889    2.0360    0.0026 N.ar      1 <0>        -0.5997
      3 C2          2.2875    1.4624   -0.0120 C.ar      1 <0>         0.5057
      4 C3          2.3582    0.0587   -0.0202 C.ar      1 <0>        -0.1020
      5 C4          1.1544   -0.6658   -0.0126 C.ar      1 <0>         0.2887
      6 N2          0.0021   -0.0041    0.0020 N.ar      1 <0>        -0.5494
      7 N3          1.5112   -1.9932   -0.0224 N.pl3     1 <0>        -0.4082
      8 C5          2.8758   -2.0483   -0.0353 C.2       1 <0>         0.2762
      9 N4          3.3687   -0.8438   -0.0340 N.2       1 <0>        -0.4606
     10 C6          0.6402   -3.0829   -0.0190 C.2       1 <0>         0.0990
     11 C7          1.1205   -4.3108   -0.0296 C.2       1 <0>        -0.2290
     12 C8          0.8810   -5.7986   -0.0406 C.3       1 <0>        -0.0912
     13 C9          2.3059   -5.2412   -0.0457 C.3       1 <0>        -0.0886
     14 C10         3.0994   -5.3539   -1.3490 C.3       1 <0>         0.1371
     15 O1          4.2435   -6.1840   -1.1398 O.3       1 <0>        -0.6876
     16 P1          5.3062   -6.5215   -2.3012 P.3       1 <0>         1.9005
     17 O2          5.6566   -5.2282   -3.0704 O.2       1 <0>        -0.9895
     18 O3          6.5885   -7.1094   -1.6711 O.3       1 <0>        -0.9659
     19 P2          4.4413   -7.9739   -3.6778 P.3       1 <0>        -0.3138
     20 O4          4.0909   -9.2672   -2.9087 O.2       1 <0>        -0.7630
     21 O5          3.1589   -7.3860   -4.3079 O.3       1 <0>        -0.7691
     22 P3          5.8801   -8.4308   -5.2505 P.3       1 <0>         1.8529
     23 O6          6.2304   -7.1375   -6.0196 O.2       1 <0>        -1.0003
     24 O7          7.1624   -9.0187   -4.6204 O.3       1 <0>        -1.0001
     25 O8          5.2413   -9.5035   -6.2671 O.3       1 <0>        -0.8406
     26 N5          3.4394    2.2293   -0.0193 N.pl3     1 <0>        -0.8213
     27 H1         -0.9693    1.8189    0.0257 H         1 <0>         0.1993
     28 H2          3.4595   -2.9570   -0.0447 H         1 <0>         0.2302
     29 H3         -0.4275   -2.9208   -0.0077 H         1 <0>         0.1676
     30 H4          0.5185   -6.2577    0.8792 H         1 <0>         0.1085
     31 H5          0.5144   -6.2434   -0.9657 H         1 <0>         0.1181
     32 H6          2.8894   -5.3302    0.8707 H         1 <0>         0.1284
     33 H7          2.4684   -5.7929   -2.1217 H         1 <0>         0.0700
     34 H8          3.4229   -4.3619   -1.6642 H         1 <0>         0.0515
     35 H9          5.8276   -9.7539   -6.9942 H         1 <0>         0.3752
     36 H10         3.3776    3.1973   -0.0138 H         1 <0>         0.4049
     37 H11         4.3086    1.7989   -0.0299 H         1 <0>         0.4207
@<TRIPOS>BOND
     1    1    6 ar
     2    1    2 ar
     3    1   27 1
     4    2    3 ar
     5    3    4 ar
     6    3   26 1
     7    4    9 1
     8    4    5 ar
     9    5    6 ar
    10    5    7 1
    11    7    8 1
    12    7   10 1
    13    8    9 2
    14    8   28 1
    15   10   11 2
    16   10   29 1
    17   11   13 1
    18   11   12 1
    19   12   13 1
    20   12   30 1
    21   12   31 1
    22   13   14 1
    23   13   32 1
    24   14   15 1
    25   14   33 1
    26   14   34 1
    27   15   16 1
    28   16   17 2
    29   16   18 1
    30   16   19 1
    31   19   20 2
    32   19   21 1
    33   19   22 1
    34   22   23 2
    35   22   24 1
    36   22   25 1
    37   25   35 1
    38   26   36 1
    39   26   37 1
@<TRIPOS>MOLECULE
CHEMBL145297__15
   36    38     0     0     0
SMALL
USER_CHARGES

@<TRIPOS>ATOM
      1 C1         -0.0158    1.3121    0.0093 C.ar      1 <0>         0.3355
      2 N1          1.0889    2.0360    0.0026 N.ar      1 <0>        -0.6023
      3 C2          2.2875    1.4624   -0.0120 C.ar      1 <0>         0.5030
      4 C3          2.3582    0.0587   -0.0202 C.ar      1 <0>        -0.1003
      5 C4          1.1544   -0.6658   -0.0126 C.ar      1 <0>         0.2824
      6 N2          0.0021   -0.0041    0.0020 N.ar      1 <0>        -0.5463
      7 N3          1.5112   -1.9932   -0.0224 N.pl3     1 <0>        -0.4018
      8 C5          2.8758   -2.0483   -0.0353 C.2       1 <0>         0.2811
      9 N4          3.3687   -0.8438   -0.0340 N.2       1 <0>        -0.4647
     10 C6          0.6402   -3.0829   -0.0190 C.2       1 <0>         0.0804
     11 C7          1.1205   -4.3108   -0.0296 C.2       1 <0>        -0.2227
     12 C8          0.8810   -5.7986   -0.0406 C.3       1 <0>        -0.0940
     13 C9          2.3059   -5.2412   -0.0457 C.3       1 <0>        -0.0841
     14 C10         3.0994   -5.3539   -1.3490 C.3       1 <0>         0.1422
     15 O1          4.2435   -6.1840   -1.1398 O.3       1 <0>        -0.6868
     16 P1          5.3062   -6.5215   -2.3012 P.3       1 <0>         1.6646
     17 O2          5.6566   -5.2282   -3.0704 O.2       1 <0>        -1.0100
     18 O3          6.5885   -7.1094   -1.6711 O.3       1 <0>        -0.9895
     19 P2          4.4413   -7.9739   -3.6778 P.3       1 <0>        -0.3172
     20 O4          4.0909   -9.2672   -2.9087 O.2       1 <0>        -0.7741
     21 O5          3.1589   -7.3860   -4.3079 O.3       1 <0>        -0.7793
     22 P3          5.8801   -8.4308   -5.2505 P.3       1 <0>         2.0097
     23 O6          6.2354   -7.1194   -6.0304 O.2       1 <0>        -1.0814
     24 O7          7.1804   -9.0270   -4.6115 O.3       1 <0>        -1.0814
     25 O8          5.2585   -9.4746   -6.2398 O.3       1 <0>        -1.0980
     26 N5          3.4394    2.2293   -0.0193 N.pl3     1 <0>        -0.8235
     27 H1         -0.9693    1.8189    0.0257 H         1 <0>         0.1963
     28 H2          3.4595   -2.9570   -0.0447 H         1 <0>         0.2318
     29 H3         -0.4275   -2.9208   -0.0077 H         1 <0>         0.1642
     30 H4          0.5185   -6.2577    0.8792 H         1 <0>         0.1047
     31 H5          0.5144   -6.2434   -0.9657 H         1 <0>         0.1185
     32 H6          2.8894   -5.3302    0.8707 H         1 <0>         0.1230
     33 H7          2.4684   -5.7929   -2.1217 H         1 <0>         0.0612
     34 H8          3.4229   -4.3619   -1.6642 H         1 <0>         0.0359
     35 H9          3.3776    3.1973   -0.0138 H         1 <0>         0.4026
     36 H10         4.3086    1.7989   -0.0299 H         1 <0>         0.4204
@<TRIPOS>BOND
     1    1    6 ar
     2    1    2 ar
     3    1   27 1
     4    2    3 ar
     5    3    4 ar
     6    3   26 1
     7    4    9 1
     8    4    5 ar
     9    5    6 ar
    10    5    7 1
    11    7    8 1
    12    7   10 1
    13    8    9 2
    14    8   28 1
    15   10   11 2
    16   10   29 1
    17   11   13 1
    18   11   12 1
    19   12   13 1
    20   12   30 1
    21   12   31 1
    22   13   14 1
    23   13   32 1
    24   14   15 1
    25   14   33 1
    26   14   34 1
    27   15   16 1
    28   16   17 2
    29   16   18 1
    30   16   19 1
    31   19   20 2
    32   19   21 1
    33   19   22 1
    34   22   23 2
    35   22   24 1
    36   22   25 1
    37   26   35 1
    38   26   36 1
@<TRIPOS>MOLECULE
CHEMBL253186
   41    42     0     0     0
SMALL
USER_CHARGES

@<TRIPOS>ATOM
      1 C1         -0.0008    1.4367    0.0178 C.3       1 <0>         0.0254
      2 O1          0.0157    0.0079    0.0070 O.3       1 <0>        -0.3089
      3 C2         -1.1886   -0.6235    0.0120 C.ar      1 <0>         0.1304
      4 C3         -2.3604    0.1185    0.0212 C.ar      1 <0>        -0.1748
      5 C4         -3.5846   -0.5221    0.0263 C.ar      1 <0>        -0.1383
      6 C5         -3.6428   -1.9071    0.0223 C.ar      1 <0>         0.0641
      7 C6         -2.4701   -2.6510    0.0126 C.ar      1 <0>         0.1165
      8 C7         -1.2449   -2.0091    0.0022 C.ar      1 <0>        -0.1160
      9 C8          0.0283   -2.8152   -0.0141 C.3       1 <0>        -0.0826
     10 C9          0.4708   -3.0987    1.4229 C.3       1 <0>         0.1317
     11 N1          1.7085   -3.8823    1.4070 N.pl3     1 <0>        -0.6794
     12 C10         2.2873   -4.2514    2.5669 C.2       1 <0>         0.5226
     13 S1          1.5761   -3.8046    4.0587 S.2       1 <0>        -0.5028
     14 N2          3.4260   -4.9723    2.5523 N.pl3     1 <0>        -0.6188
     15 C11         4.0831   -5.2614    3.7471 C.ar      1 <0>         0.3443
     16 C12         5.3115   -5.9123    3.7173 C.ar      1 <0>        -0.1863
     17 C13         5.9536   -6.1930    4.9101 C.ar      1 <0>        -0.0441
     18 C14         5.3421   -5.8111    6.0978 C.ar      1 <0>        -0.1116
     19 C15         4.1203   -5.1674    6.0525 C.ar      1 <0>         0.1371
     20 N3          3.5345   -4.9089    4.8988 N.ar      1 <0>        -0.3965
     21 Cl1         6.1045   -6.1398    7.6223 Cl        1 <0>        -0.0591
     22 F1         -2.5259   -4.0009    0.0087 F         1 <0>        -0.1211
     23 O2         -4.8483   -2.5375    0.0282 O.3       1 <0>        -0.3086
     24 C16        -6.0131   -1.7098    0.0385 C.3       1 <0>         0.0258
     25 H1          1.0225    1.8120    0.0123 H         1 <0>         0.1037
     26 H2         -0.5260    1.8007   -0.8653 H         1 <0>         0.0576
     27 H3         -0.5117    1.7875    0.9145 H         1 <0>         0.0594
     28 H4         -2.3159    1.1976    0.0247 H         1 <0>         0.1409
     29 H5         -4.4966    0.0565    0.0338 H         1 <0>         0.1435
     30 H6         -0.1450   -3.7577   -0.5335 H         1 <0>         0.0845
     31 H7          0.8072   -2.2538   -0.5300 H         1 <0>         0.0929
     32 H8          0.6441   -2.1562    1.9423 H         1 <0>         0.0939
     33 H9         -0.3081   -3.6601    1.9388 H         1 <0>         0.0899
     34 H10         2.1115   -4.1355    0.5618 H         1 <0>         0.3964
     35 H11         3.7881   -5.2900    1.7104 H         1 <0>         0.4097
     36 H12         5.7582   -6.1953    2.7756 H         1 <0>         0.1412
     37 H13         6.9084   -6.6978    4.9179 H         1 <0>         0.1486
     38 H14         3.6407   -4.8685    6.9728 H         1 <0>         0.1685
     39 H15        -6.9046   -2.3370    0.0423 H         1 <0>         0.1047
     40 H16        -6.0058   -1.0833    0.9304 H         1 <0>         0.0583
     41 H17        -6.0175   -1.0776   -0.8495 H         1 <0>         0.0573
@<TRIPOS>BOND
     1    1    2 1
     2    1   25 1
     3    1   26 1
     4    1   27 1
     5    2    3 1
     6    3    8 ar
     7    3    4 ar
     8    4    5 ar
     9    4   28 1
    10    5    6 ar
    11    5   29 1
    12    6    7 ar
    13    6   23 1
    14    7    8 ar
    15    7   22 1
    16    8    9 1
    17    9   10 1
    18    9   30 1
    19    9   31 1
    20   10   11 1
    21   10   32 1
    22   10   33 1
    23   11   12 1
    24   11   34 1
    25   12   13 2
    26   12   14 1
    27   14   15 1
    28   14   35 1
    29   15   20 ar
    30   15   16 ar
    31   16   17 ar
    32   16   36 1
    33   17   18 ar
    34   17   37 1
    35   18   19 ar
    36   18   21 1
    37   19   20 ar
    38   19   38 1
    39   23   24 1
    40   24   39 1
    41   24   40 1
    42   24   41 1
@<TRIPOS>MOLECULE
CHEMBL121881
   65    68     0     0     0
SMALL
USER_CHARGES

@<TRIPOS>ATOM
      1 C1         -2.6733    1.6921    4.4397 C.3       1 <0>        -0.1707
      2 C2         -2.1435    0.9637    3.2029 C.3       1 <0>         0.1177
      3 C3         -1.8750   -0.5020    3.5501 C.3       1 <0>        -0.1746
      4 N1         -3.1379    1.0370    2.1296 N.pl3     1 <0>        -0.6463
      5 C4         -2.7357    0.9342    0.7978 C.ar      1 <0>         0.2803
      6 C5         -1.3865    0.8914    0.4545 C.ar      1 <0>        -0.2050
      7 C6         -1.0611    0.7883   -0.8887 C.ar      1 <0>         0.1613
      8 N2         -2.0151    0.7342   -1.7975 N.ar      1 <0>        -0.3242
      9 N3         -3.2606    0.7734   -1.4921 N.ar      1 <0>        -0.2076
     10 C7         -3.6759    0.8646   -0.2398 C.ar      1 <0>         0.3468
     11 N4         -5.0392    0.8974    0.0461 N.pl3     1 <0>        -0.6471
     12 C8         -5.7397    2.1815    0.1282 C.3       1 <0>         0.0978
     13 C9         -5.7721   -0.3521    0.2645 C.3       1 <0>         0.1705
     14 C10        -6.8904   -0.4753   -0.7730 C.3       1 <0>        -0.1441
     15 C11        -7.6325   -1.7990   -0.5633 C.3       1 <0>         0.1153
     16 N5         -8.0921   -1.8679    0.8305 N.am      1 <0>        -0.6212
     17 C12        -7.1125   -1.6720    1.9079 C.3       1 <0>         0.0941
     18 C13        -6.3763   -0.3497    1.6706 C.3       1 <0>        -0.1444
     19 C14        -9.3878   -2.1057    1.1154 C.2       1 <0>         0.5961
     20 O1        -10.2153   -2.1124    0.2237 O.2       1 <0>        -0.5194
     21 C15        -9.8011   -2.3573    2.5040 C.2       1 <0>        -0.0154
     22 C16       -11.0241   -2.0757    3.0250 C.2       1 <0>        -0.1072
     23 C17       -11.0148   -2.4689    4.3852 C.ar      1 <0>        -0.0678
     24 C18       -11.9748   -2.4225    5.4051 C.ar      1 <0>        -0.1598
     25 C19       -11.6581   -2.8941    6.6629 C.ar      1 <0>         0.2602
     26 C20       -10.3897   -3.4151    6.9210 C.ar      1 <0>        -0.1788
     27 C21        -9.4384   -3.4658    5.9285 C.ar      1 <0>        -0.1016
     28 C22        -9.7367   -2.9959    4.6524 C.ar      1 <0>         0.0358
     29 N6         -9.0102   -2.9229    3.4848 N.pl3     1 <0>        -0.5912
     30 H1         -8.0934   -3.2184    3.3704 H         1 <0>         0.4037
     31 N7        -12.6137   -2.8493    7.6844 N.2       1 <0>        -1.0973
     32 S1        -12.2380   -3.4141    9.1951 S.o2      1 <0>         2.5231
     33 O2        -11.9981   -4.8029    9.0136 O.2       1 <0>        -1.0332
     34 O3        -11.2048   -2.5548    9.6569 O.2       1 <0>        -1.0353
     35 C23       -13.7440   -3.1630   10.1746 C.3       1 <0>        -0.6353
     36 H2         -1.9334    1.6375    5.2382 H         1 <0>         0.0915
     37 H3         -2.8646    2.7362    4.1923 H         1 <0>         0.0705
     38 H4         -3.5994    1.2213    4.7696 H         1 <0>         0.0740
     39 H5         -1.2174    1.4344    2.8729 H         1 <0>         0.0996
     40 H6         -1.4975   -1.0209    2.6690 H         1 <0>         0.0613
     41 H7         -1.1351   -0.5565    4.3487 H         1 <0>         0.0871
     42 H8         -2.8011   -0.9727    3.8801 H         1 <0>         0.0727
     43 H9         -4.0761    1.1570    2.3450 H         1 <0>         0.4255
     44 H10        -0.6177    0.9374    1.2116 H         1 <0>         0.1897
     45 H11        -0.0250    0.7525   -1.1915 H         1 <0>         0.2170
     46 H12        -6.2039    2.4043   -0.8325 H         1 <0>         0.0602
     47 H13        -6.5083    2.1274    0.8993 H         1 <0>         0.0849
     48 H14        -5.0281    2.9682    0.3791 H         1 <0>         0.0628
     49 H15        -5.0894   -1.1959    0.1641 H         1 <0>         0.0829
     50 H16        -7.5873    0.3548   -0.6569 H         1 <0>         0.0793
     51 H17        -6.4614   -0.4534   -1.7747 H         1 <0>         0.0818
     52 H18        -8.4905   -1.8471   -1.2338 H         1 <0>         0.1030
     53 H19        -6.9593   -2.6316   -0.7676 H         1 <0>         0.0673
     54 H20        -7.6275   -1.6363    2.8679 H         1 <0>         0.1104
     55 H21        -6.3970   -2.4942    1.9051 H         1 <0>         0.0694
     56 H22        -5.5814   -0.2385    2.4079 H         1 <0>         0.0720
     57 H23        -7.0780    0.4792    1.7636 H         1 <0>         0.0849
     58 H24       -11.8545   -1.6315    2.4964 H         1 <0>         0.1429
     59 H25       -12.9571   -2.0194    5.2079 H         1 <0>         0.1163
     60 H26       -10.1525   -3.7815    7.9089 H         1 <0>         0.1107
     61 H27        -8.4597   -3.8707    6.1394 H         1 <0>         0.1039
     62 H28       -14.5656   -3.7227    9.7276 H         1 <0>         0.1160
     63 H29       -13.5775   -3.5133   11.1932 H         1 <0>         0.1013
     64 H30       -13.9938   -2.1021   10.1914 H         1 <0>         0.1155
     65 H31        -1.7657    0.6625   -2.7322 H         1 <0>         0.4702
@<TRIPOS>BOND
     1    1    2 1
     2    1   36 1
     3    1   37 1
     4    1   38 1
     5    2    3 1
     6    2    4 1
     7    2   39 1
     8    3   40 1
     9    3   41 1
    10    3   42 1
    11    4    5 1
    12    4   43 1
    13    5   10 ar
    14    5    6 ar
    15    6    7 ar
    16    6   44 1
    17    7    8 ar
    18    7   45 1
    19    8    9 ar
    20    8   65 1
    21    9   10 ar
    22   10   11 1
    23   11   12 1
    24   11   13 1
    25   12   46 1
    26   12   47 1
    27   12   48 1
    28   13   18 1
    29   13   14 1
    30   13   49 1
    31   14   15 1
    32   14   50 1
    33   14   51 1
    34   15   16 1
    35   15   52 1
    36   15   53 1
    37   16   17 1
    38   16   19 am
    39   17   18 1
    40   17   54 1
    41   17   55 1
    42   18   56 1
    43   18   57 1
    44   19   20 2
    45   19   21 1
    46   21   29 1
    47   21   22 2
    48   22   23 1
    49   22   58 1
    50   23   28 ar
    51   23   24 ar
    52   24   25 ar
    53   24   59 1
    54   25   26 ar
    55   25   31 1
    56   26   27 ar
    57   26   60 1
    58   27   28 ar
    59   27   61 1
    60   28   29 1
    61   29   30 1
    62   31   32 1
    63   32   33 2
    64   32   34 2
    65   32   35 1
    66   35   62 1
    67   35   63 1
    68   35   64 1
@<TRIPOS>MOLECULE
CHEMBL121881__1
   64    67     0     0     0
SMALL
USER_CHARGES

@<TRIPOS>ATOM
      1 C1         -2.6733    1.6920    4.4397 C.3       1 <0>        -0.1629
      2 C2         -2.1435    0.9636    3.2029 C.3       1 <0>         0.1375
      3 C3         -1.8750   -0.5021    3.5501 C.3       1 <0>        -0.1694
      4 N1         -3.1379    1.0370    2.1296 N.pl3     1 <0>        -0.7130
      5 C4         -2.7357    0.9342    0.7978 C.ar      1 <0>         0.2165
      6 C5         -1.3865    0.8913    0.4545 C.ar      1 <0>        -0.2196
      7 C6         -1.0611    0.7883   -0.8887 C.ar      1 <0>         0.0777
      8 N2         -2.0151    0.7342   -1.7975 N.ar      1 <0>        -0.2882
      9 N3         -3.2606    0.7730   -1.4920 N.ar      1 <0>        -0.2199
     10 C7         -3.6759    0.8646   -0.2398 C.ar      1 <0>         0.2611
     11 N4         -5.0392    0.8974    0.0461 N.pl3     1 <0>        -0.6503
     12 C8         -5.7397    2.1815    0.1282 C.3       1 <0>         0.1126
     13 C9         -5.7721   -0.3521    0.2645 C.3       1 <0>         0.1808
     14 C10        -6.8904   -0.4753   -0.7730 C.3       1 <0>        -0.1433
     15 C11        -7.6325   -1.7990   -0.5633 C.3       1 <0>         0.1158
     16 N5         -8.0921   -1.8679    0.8305 N.am      1 <0>        -0.6157
     17 C12        -7.1125   -1.6720    1.9079 C.3       1 <0>         0.0944
     18 C13        -6.3763   -0.3497    1.6706 C.3       1 <0>        -0.1437
     19 C14        -9.3878   -2.1057    1.1154 C.2       1 <0>         0.5933
     20 O1        -10.2153   -2.1124    0.2237 O.2       1 <0>        -0.5267
     21 C15        -9.8011   -2.3573    2.5040 C.2       1 <0>        -0.0045
     22 C16       -11.0241   -2.0757    3.0250 C.2       1 <0>        -0.1160
     23 C17       -11.0148   -2.4689    4.3852 C.ar      1 <0>        -0.0667
     24 C18       -11.9748   -2.4225    5.4051 C.ar      1 <0>        -0.1599
     25 C19       -11.6581   -2.8941    6.6629 C.ar      1 <0>         0.2573
     26 C20       -10.3897   -3.4151    6.9210 C.ar      1 <0>        -0.1824
     27 C21        -9.4384   -3.4658    5.9285 C.ar      1 <0>        -0.0997
     28 C22        -9.7367   -2.9959    4.6524 C.ar      1 <0>         0.0361
     29 N6         -9.0102   -2.9229    3.4848 N.pl3     1 <0>        -0.5891
     30 H1         -8.0934   -3.2184    3.3704 H         1 <0>         0.4062
     31 N7        -12.6137   -2.8493    7.6844 N.2       1 <0>        -1.0984
     32 S1        -12.2380   -3.4141    9.1951 S.o2      1 <0>         2.5209
     33 O2        -11.9981   -4.8029    9.0136 O.2       1 <0>        -1.0345
     34 O3        -11.2048   -2.5548    9.6569 O.2       1 <0>        -1.0352
     35 C23       -13.7440   -3.1630   10.1746 C.3       1 <0>        -0.6358
     36 H2         -1.9334    1.6374    5.2382 H         1 <0>         0.0755
     37 H3         -2.8646    2.7362    4.1923 H         1 <0>         0.0626
     38 H4         -3.5994    1.2213    4.7696 H         1 <0>         0.0646
     39 H5         -1.2174    1.4344    2.8729 H         1 <0>         0.0815
     40 H6         -1.4975   -1.0209    2.6690 H         1 <0>         0.0577
     41 H7         -1.1351   -0.5566    4.3487 H         1 <0>         0.0682
     42 H8         -2.8011   -0.9728    3.8801 H         1 <0>         0.0619
     43 H9         -4.0761    1.1570    2.3450 H         1 <0>         0.4077
     44 H10        -0.6177    0.9374    1.2116 H         1 <0>         0.1427
     45 H11        -0.0250    0.7525   -1.1915 H         1 <0>         0.1668
     46 H12        -6.2039    2.4043   -0.8325 H         1 <0>         0.0431
     47 H13        -6.5083    2.1274    0.8993 H         1 <0>         0.0644
     48 H14        -5.0281    2.9682    0.3791 H         1 <0>         0.0536
     49 H15        -5.0894   -1.1959    0.1641 H         1 <0>         0.0757
     50 H16        -7.5873    0.3548   -0.6569 H         1 <0>         0.0719
     51 H17        -6.4614   -0.4534   -1.7747 H         1 <0>         0.0824
     52 H18        -8.4905   -1.8471   -1.2338 H         1 <0>         0.0976
     53 H19        -6.9593   -2.6316   -0.7676 H         1 <0>         0.0666
     54 H20        -7.6275   -1.6363    2.8679 H         1 <0>         0.1030
     55 H21        -6.3970   -2.4942    1.9051 H         1 <0>         0.0680
     56 H22        -5.5814   -0.2385    2.4079 H         1 <0>         0.0731
     57 H23        -7.0780    0.4792    1.7636 H         1 <0>         0.0767
     58 H24       -11.8545   -1.6315    2.4964 H         1 <0>         0.1421
     59 H25       -12.9571   -2.0194    5.2079 H         1 <0>         0.1148
     60 H26       -10.1525   -3.7815    7.9089 H         1 <0>         0.1092
     61 H27        -8.4597   -3.8707    6.1394 H         1 <0>         0.1041
     62 H28       -14.5656   -3.7227    9.7276 H         1 <0>         0.1149
     63 H29       -13.5775   -3.5133   11.1932 H         1 <0>         0.0994
     64 H30       -13.9938   -2.1021   10.1914 H         1 <0>         0.1147
@<TRIPOS>BOND
     1    1    2 1
     2    1   36 1
     3    1   37 1
     4    1   38 1
     5    2    3 1
     6    2    4 1
     7    2   39 1
     8    3   40 1
     9    3   41 1
    10    3   42 1
    11    4    5 1
    12    4   43 1
    13    5   10 ar
    14    5    6 ar
    15    6    7 ar
    16    6   44 1
    17    7    8 ar
    18    7   45 1
    19    8    9 ar
    20    9   10 ar
    21   10   11 1
    22   11   12 1
    23   11   13 1
    24   12   46 1
    25   12   47 1
    26   12   48 1
    27   13   18 1
    28   13   14 1
    29   13   49 1
    30   14   15 1
    31   14   50 1
    32   14   51 1
    33   15   16 1
    34   15   52 1
    35   15   53 1
    36   16   17 1
    37   16   19 am
    38   17   18 1
    39   17   54 1
    40   17   55 1
    41   18   56 1
    42   18   57 1
    43   19   20 2
    44   19   21 1
    45   21   29 1
    46   21   22 2
    47   22   23 1
    48   22   58 1
    49   23   28 ar
    50   23   24 ar
    51   24   25 ar
    52   24   59 1
    53   25   26 ar
    54   25   31 1
    55   26   27 ar
    56   26   60 1
    57   27   28 ar
    58   27   61 1
    59   28   29 1
    60   29   30 1
    61   31   32 1
    62   32   33 2
    63   32   34 2
    64   32   35 1
    65   35   62 1
    66   35   63 1
    67   35   64 1
@<TRIPOS>MOLECULE
CHEMBL100629
   47    50     0     0     0
SMALL
USER_CHARGES

@<TRIPOS>ATOM
      1 C1         -0.4965    1.9288    0.0862 C.3       1 <0>        -0.1710
      2 C2         -0.6935    0.4197   -0.0701 C.3       1 <0>         0.1376
      3 N1          0.1038   -0.2839    0.9376 N.pl3     1 <0>        -0.5784
      4 C3          1.4176   -0.6590    0.6599 C.ar      1 <0>         0.3618
      5 C4          2.4746   -0.1642    1.4208 C.ar      1 <0>         0.0915
      6 C5          3.7645   -0.6083    1.1489 C.ar      1 <0>        -0.0866
      7 C6          3.9534   -1.5051    0.1066 C.ar      1 <0>        -0.1552
      8 C7          2.8629   -1.9272   -0.6257 C.ar      1 <0>         0.1101
      9 N2          1.6475   -1.5030   -0.3364 N.ar      1 <0>        -0.4736
     10 N3          2.2821    0.7993    2.4072 N.am      1 <0>        -0.5379
     11 C8          1.2795    0.8632    3.2707 C.2       1 <0>         0.5756
     12 O1          1.2957    1.7759    4.0737 O.2       1 <0>        -0.5229
     13 C9          0.1514   -0.0715    3.3417 C.ar      1 <0>        -0.1982
     14 C10        -0.4376   -0.5777    2.1766 C.ar      1 <0>         0.4133
     15 N4         -1.5090   -1.3558    2.2553 N.ar      1 <0>        -0.4948
     16 C11        -2.0263   -1.7190    3.4095 C.ar      1 <0>         0.1778
     17 C12        -1.4621   -1.2945    4.6161 C.ar      1 <0>        -0.1279
     18 C13        -0.3571   -0.4580    4.5831 C.ar      1 <0>        -0.0006
     19 C14        -2.0322   -1.7324    5.9025 C.2       1 <0>        -0.1048
     20 C15        -2.5385   -2.9699    6.0259 C.2       1 <0>        -0.0963
     21 C16        -2.3394   -3.9581    4.9508 C.ar      1 <0>        -0.0700
     22 C17        -1.1270   -4.0071    4.2578 C.ar      1 <0>        -0.1050
     23 C18        -0.9480   -4.9345    3.2528 C.ar      1 <0>        -0.1132
     24 C19        -1.9656   -5.8150    2.9299 C.ar      1 <0>        -0.1113
     25 C20        -3.1690   -5.7724    3.6118 C.ar      1 <0>        -0.1177
     26 C21        -3.3602   -4.8545    4.6233 C.ar      1 <0>        -0.1082
     27 C22         3.2953    1.8533    2.5003 C.3       1 <0>         0.0651
     28 H1          0.5571    2.1736   -0.0483 H         1 <0>         0.0535
     29 H2         -1.0897    2.4523   -0.6636 H         1 <0>         0.0722
     30 H3         -0.8166    2.2358    1.0819 H         1 <0>         0.0539
     31 H4         -1.7471    0.1749    0.0644 H         1 <0>         0.0835
     32 H5         -0.3734    0.1127   -1.0658 H         1 <0>         0.0836
     33 H6          4.6018   -0.2627    1.7371 H         1 <0>         0.1469
     34 H7          4.9429   -1.8681   -0.1289 H         1 <0>         0.1472
     35 H8          3.0060   -2.6142   -1.4467 H         1 <0>         0.1662
     36 H9         -2.8993   -2.3546    3.4248 H         1 <0>         0.1652
     37 H10         0.0955   -0.1098    5.4998 H         1 <0>         0.1481
     38 H11        -2.0428   -1.0580    6.7460 H         1 <0>         0.1359
     39 H12        -3.0916   -3.2411    6.9130 H         1 <0>         0.1348
     40 H13        -0.3322   -3.3201    4.5082 H         1 <0>         0.1170
     41 H14        -0.0114   -4.9735    2.7164 H         1 <0>         0.1182
     42 H15        -1.8200   -6.5386    2.1416 H         1 <0>         0.1222
     43 H16        -3.9588   -6.4624    3.3541 H         1 <0>         0.1248
     44 H17        -4.2982   -4.8257    5.1579 H         1 <0>         0.1266
     45 H18         3.0114    2.6879    1.8592 H         1 <0>         0.0675
     46 H19         3.3688    2.1966    3.5323 H         1 <0>         0.0936
     47 H20         4.2596    1.4598    2.1788 H         1 <0>         0.0798
@<TRIPOS>BOND
     1    1    2 1
     2    1   28 1
     3    1   29 1
     4    1   30 1
     5    2    3 1
     6    2   31 1
     7    2   32 1
     8    3   14 1
     9    3    4 1
    10    4    9 ar
    11    4    5 ar
    12    5    6 ar
    13    5   10 1
    14    6    7 ar
    15    6   33 1
    16    7    8 ar
    17    7   34 1
    18    8    9 ar
    19    8   35 1
    20   10   11 am
    21   10   27 1
    22   11   12 2
    23   11   13 1
    24   13   18 ar
    25   13   14 ar
    26   14   15 ar
    27   15   16 ar
    28   16   17 ar
    29   16   36 1
    30   17   18 ar
    31   17   19 1
    32   18   37 1
    33   19   20 2
    34   19   38 1
    35   20   21 1
    36   20   39 1
    37   21   26 ar
    38   21   22 ar
    39   22   23 ar
    40   22   40 1
    41   23   24 ar
    42   23   41 1
    43   24   25 ar
    44   24   42 1
    45   25   26 ar
    46   25   43 1
    47   26   44 1
    48   27   45 1
    49   27   46 1
    50   27   47 1
@<TRIPOS>MOLECULE
CHEMBL330597
   52    55     0     0     0
SMALL
USER_CHARGES

@<TRIPOS>ATOM
      1 C1         -0.0187    1.5258    0.0104 C.3       1 <0>        -0.1710
      2 C2          0.0021   -0.0041    0.0020 C.3       1 <0>         0.1379
      3 N1          0.7106   -0.4894    1.1889 N.pl3     1 <0>        -0.5795
      4 C3          2.0889   -0.7000    1.1501 C.ar      1 <0>         0.3616
      5 C4          2.9403    0.0079    1.9956 C.ar      1 <0>         0.0913
      6 C5          4.3023   -0.2733    1.9671 C.ar      1 <0>        -0.0863
      7 C6          4.7658   -1.2277    1.0724 C.ar      1 <0>        -0.1552
      8 C7          3.8679   -1.8660    0.2418 C.ar      1 <0>         0.1105
      9 N2          2.5785   -1.5922    0.3007 N.ar      1 <0>        -0.4744
     10 N3          2.4738    1.0227    2.8272 N.am      1 <0>        -0.5379
     11 C8          1.3463    1.0251    3.5229 C.2       1 <0>         0.5751
     12 O1          1.1199    2.0020    4.2103 O.2       1 <0>        -0.5230
     13 C9          0.3479   -0.0485    3.5350 C.ar      1 <0>        -0.1949
     14 C10         0.0204   -0.7384    2.3628 C.ar      1 <0>         0.4093
     15 N4         -0.9437   -1.6475    2.3792 N.ar      1 <0>        -0.4957
     16 C11        -1.5843   -1.9625    3.4880 C.ar      1 <0>         0.1551
     17 C12        -1.2764   -1.3537    4.6909 C.ar      1 <0>        -0.1505
     18 C13        -0.3029   -0.3882    4.7261 C.ar      1 <0>        -0.0013
     19 C14        -2.0003   -1.7516    5.9513 C.3       1 <0>        -0.0743
     20 C15        -1.2465   -2.8953    6.6329 C.3       1 <0>        -0.1093
     21 C16        -1.9813   -3.2993    7.9127 C.3       1 <0>        -0.0815
     22 C17        -1.2389   -4.4258    8.5840 C.ar      1 <0>        -0.0829
     23 C18        -1.5390   -5.7373    8.2667 C.ar      1 <0>        -0.1179
     24 C19        -0.8580   -6.7707    8.8825 C.ar      1 <0>        -0.1182
     25 C20         0.1235   -6.4925    9.8153 C.ar      1 <0>        -0.1252
     26 C21         0.4243   -5.1809   10.1320 C.ar      1 <0>        -0.1184
     27 C22        -0.2538   -4.1475    9.5130 C.ar      1 <0>        -0.1185
     28 C23         3.3193    2.2132    2.9457 C.3       1 <0>         0.0651
     29 H1          1.0039    1.9031    0.0027 H         1 <0>         0.0536
     30 H2         -0.5459    1.8868   -0.8726 H         1 <0>         0.0723
     31 H3         -0.5289    1.8773    0.9072 H         1 <0>         0.0538
     32 H4         -1.0205   -0.3814    0.0098 H         1 <0>         0.0833
     33 H5          0.5123   -0.3556   -0.8948 H         1 <0>         0.0837
     34 H6          4.9851    0.2408    2.6274 H         1 <0>         0.1470
     35 H7          5.8178   -1.4679    1.0265 H         1 <0>         0.1475
     36 H8          4.2252   -2.5991   -0.4662 H         1 <0>         0.1667
     37 H9         -2.3638   -2.7093    3.4560 H         1 <0>         0.1658
     38 H10        -0.0507    0.1035    5.6540 H         1 <0>         0.1459
     39 H11        -2.0514   -0.8971    6.6261 H         1 <0>         0.0799
     40 H12        -3.0097   -2.0791    5.7027 H         1 <0>         0.0823
     41 H13        -1.1954   -3.7498    5.9582 H         1 <0>         0.0672
     42 H14        -0.2370   -2.5679    6.8816 H         1 <0>         0.0650
     43 H15        -2.0325   -2.4448    8.5874 H         1 <0>         0.0744
     44 H16        -2.9908   -3.6267    7.6640 H         1 <0>         0.0753
     45 H17        -2.3058   -5.9547    7.5379 H         1 <0>         0.1213
     46 H18        -1.0929   -7.7954    8.6351 H         1 <0>         0.1216
     47 H19         0.6551   -7.2998   10.2970 H         1 <0>         0.1208
     48 H20         1.1909   -4.9636   10.8610 H         1 <0>         0.1212
     49 H21        -0.0162   -3.1228    9.7577 H         1 <0>         0.1206
     50 H22         3.0391    2.9356    2.1791 H         1 <0>         0.0676
     51 H23         3.1838    2.6584    3.9314 H         1 <0>         0.0935
     52 H24         4.3641    1.9313    2.8149 H         1 <0>         0.0799
@<TRIPOS>BOND
     1    1    2 1
     2    1   29 1
     3    1   30 1
     4    1   31 1
     5    2    3 1
     6    2   32 1
     7    2   33 1
     8    3   14 1
     9    3    4 1
    10    4    9 ar
    11    4    5 ar
    12    5    6 ar
    13    5   10 1
    14    6    7 ar
    15    6   34 1
    16    7    8 ar
    17    7   35 1
    18    8    9 ar
    19    8   36 1
    20   10   11 am
    21   10   28 1
    22   11   12 2
    23   11   13 1
    24   13   18 ar
    25   13   14 ar
    26   14   15 ar
    27   15   16 ar
    28   16   17 ar
    29   16   37 1
    30   17   18 ar
    31   17   19 1
    32   18   38 1
    33   19   20 1
    34   19   39 1
    35   19   40 1
    36   20   21 1
    37   20   41 1
    38   20   42 1
    39   21   22 1
    40   21   43 1
    41   21   44 1
    42   22   27 ar
    43   22   23 ar
    44   23   24 ar
    45   23   45 1
    46   24   25 ar
    47   24   46 1
    48   25   26 ar
    49   25   47 1
    50   26   27 ar
    51   26   48 1
    52   27   49 1
    53   28   50 1
    54   28   51 1
    55   28   52 1
@<TRIPOS>MOLECULE
CHEMBL190879
   41    43     0     0     0
SMALL
USER_CHARGES

@<TRIPOS>ATOM
      1 C1         -0.0184    1.5028    0.0103 C.3       1 <0>        -0.0824
      2 C2          0.0021   -0.0041    0.0020 C.2       1 <0>         0.2837
      3 N1          0.0080   -0.7588   -1.0626 N.2       1 <0>        -0.4774
      4 C3          0.0278   -2.0475   -0.6911 C.2       1 <0>         0.1113
      5 C4          0.0345   -2.0930    0.6548 C.2       1 <0>        -0.0106
      6 N2          0.0232   -0.7970    1.0950 N.pl3     1 <0>        -0.4326
      7 C5          0.0296   -0.3529    2.4911 C.3       1 <0>         0.0913
      8 C6         -1.4104   -0.2188    2.9902 C.3       1 <0>         0.0529
      9 O1         -1.4042    0.2143    4.3519 O.3       1 <0>        -0.3580
     10 C7         -2.7069    0.3720    4.9177 C.3       1 <0>         0.2258
     11 C8         -2.6711    1.4521    5.9680 C.ar      1 <0>        -0.0899
     12 C9         -1.5453    1.6153    6.7535 C.ar      1 <0>        -0.0860
     13 C10        -1.5125    2.6061    7.7169 C.ar      1 <0>        -0.1209
     14 C11        -2.6051    3.4340    7.8945 C.ar      1 <0>        -0.1116
     15 C12        -3.7305    3.2714    7.1084 C.ar      1 <0>        -0.1199
     16 C13        -3.7618    2.2834    6.1421 C.ar      1 <0>        -0.1042
     17 C14        -3.1418   -0.9264    5.5470 C.2       1 <0>        -0.1806
     18 C15        -4.3623   -1.5157    5.5317 C.2       1 <0>        -0.1448
     19 C16        -4.5324   -2.7222    6.1845 C.2       1 <0>        -0.1631
     20 C17        -3.4736   -3.2804    6.8206 C.2       1 <0>        -0.1732
     21 S1         -2.1812   -2.0913    6.4996 S.3       1 <0>         0.0853
     22 N3          0.0554   -3.3107    1.4964 N.pl3     1 <0>         0.0708
     23 O2          0.0690   -4.4031    0.9788 O.2       1 <0>        -0.1317
     24 O3          0.0589   -3.2126    2.7014 O.3       1 <0>        -0.1608
     25 H1          1.0042    1.8801    0.0026 H         1 <0>         0.0994
     26 H2         -0.5455    1.8639   -0.8728 H         1 <0>         0.1077
     27 H3         -0.5286    1.8543    0.9071 H         1 <0>         0.0861
     28 H4          0.0365   -2.8993   -1.3550 H         1 <0>         0.2032
     29 H5          0.5594   -1.0836    3.1023 H         1 <0>         0.1242
     30 H6          0.5305    0.6125    2.5630 H         1 <0>         0.1173
     31 H7         -1.9402    0.5119    2.3790 H         1 <0>         0.0614
     32 H8         -1.9113   -1.1842    2.9182 H         1 <0>         0.0612
     33 H9         -3.4120    0.6502    4.1344 H         1 <0>         0.0907
     34 H10        -0.6917    0.9685    6.6147 H         1 <0>         0.1276
     35 H11        -0.6332    2.7331    8.3311 H         1 <0>         0.1253
     36 H12        -2.5797    4.2076    8.6477 H         1 <0>         0.1241
     37 H13        -4.5843    3.9180    7.2474 H         1 <0>         0.1255
     38 H14        -4.6396    2.1588    5.5253 H         1 <0>         0.1220
     39 H15        -5.1897   -1.0494    5.0175 H         1 <0>         0.1299
     40 H16        -5.4946   -3.2127    6.1879 H         1 <0>         0.1340
     41 H17        -3.4237   -4.2062    7.3745 H         1 <0>         0.1868
@<TRIPOS>BOND
     1    1    2 1
     2    1   25 1
     3    1   26 1
     4    1   27 1
     5    2    6 1
     6    2    3 2
     7    3    4 1
     8    4    5 2
     9    4   28 1
    10    5    6 1
    11    5   22 1
    12    6    7 1
    13    7    8 1
    14    7   29 1
    15    7   30 1
    16    8    9 1
    17    8   31 1
    18    8   32 1
    19    9   10 1
    20   10   11 1
    21   10   17 1
    22   10   33 1
    23   11   16 ar
    24   11   12 ar
    25   12   13 ar
    26   12   34 1
    27   13   14 ar
    28   13   35 1
    29   14   15 ar
    30   14   36 1
    31   15   16 ar
    32   15   37 1
    33   16   38 1
    34   17   21 1
    35   17   18 2
    36   18   19 1
    37   18   39 1
    38   19   20 2
    39   19   40 1
    40   20   21 1
    41   20   41 1
    42   22   23 2
    43   22   24 1
@<TRIPOS>MOLECULE
CHEMBL190879__1
   41    43     0     0     0
SMALL
USER_CHARGES

@<TRIPOS>ATOM
      1 C1         -0.0184    1.5028    0.0103 C.3       1 <0>        -0.0831
      2 C2          0.0021   -0.0041    0.0020 C.2       1 <0>         0.2853
      3 N1          0.0080   -0.7588   -1.0626 N.2       1 <0>        -0.4775
      4 C3          0.0278   -2.0475   -0.6911 C.2       1 <0>         0.1122
      5 C4          0.0345   -2.0930    0.6548 C.2       1 <0>        -0.0116
      6 N2          0.0232   -0.7970    1.0950 N.pl3     1 <0>        -0.4326
      7 C5          0.0296   -0.3529    2.4911 C.3       1 <0>         0.0915
      8 C6         -1.4104   -0.2188    2.9902 C.3       1 <0>         0.0530
      9 O1         -1.4042    0.2143    4.3519 O.3       1 <0>        -0.3570
     10 C7         -2.7069    0.3720    4.9177 C.3       1 <0>         0.2248
     11 C8         -2.6480    0.0983    6.3985 C.ar      1 <0>        -0.0901
     12 C9         -1.5771    0.5552    7.1437 C.ar      1 <0>        -0.0844
     13 C10        -1.5231    0.3041    8.5020 C.ar      1 <0>        -0.1212
     14 C11        -2.5401   -0.4035    9.1151 C.ar      1 <0>        -0.1103
     15 C12        -3.6115   -0.8595    8.3700 C.ar      1 <0>        -0.1197
     16 C13        -3.6676   -0.6048    7.0125 C.ar      1 <0>        -0.1031
     17 C14        -3.1879    1.7813    4.6861 C.2       1 <0>        -0.1741
     18 C15        -4.4459    2.2252    4.4459 C.2       1 <0>        -0.1446
     19 C16        -4.6553    3.5792    4.2624 C.2       1 <0>        -0.1589
     20 C17        -3.5965    4.4229    4.3280 C.2       1 <0>        -0.1745
     21 S1         -2.2499    3.3002    4.6647 S.3       1 <0>         0.0688
     22 N3          0.0554   -3.3107    1.4964 N.pl3     1 <0>         0.0715
     23 O2          0.0690   -4.4031    0.9788 O.2       1 <0>        -0.1297
     24 O3          0.0589   -3.2126    2.7014 O.3       1 <0>        -0.1650
     25 H1          1.0042    1.8801    0.0026 H         1 <0>         0.0997
     26 H2         -0.5455    1.8639   -0.8728 H         1 <0>         0.1076
     27 H3         -0.5286    1.8543    0.9071 H         1 <0>         0.0865
     28 H4          0.0365   -2.8993   -1.3550 H         1 <0>         0.2035
     29 H5          0.5594   -1.0836    3.1023 H         1 <0>         0.1244
     30 H6          0.5305    0.6125    2.5630 H         1 <0>         0.1170
     31 H7         -1.9402    0.5119    2.3790 H         1 <0>         0.0611
     32 H8         -1.9113   -1.1842    2.9182 H         1 <0>         0.0613
     33 H9         -3.3953   -0.3290    4.4457 H         1 <0>         0.0920
     34 H10        -0.7825    1.1080    6.6647 H         1 <0>         0.1256
     35 H11        -0.6861    0.6604    9.0841 H         1 <0>         0.1253
     36 H12        -2.4976   -0.6002   10.1762 H         1 <0>         0.1245
     37 H13        -4.4059   -1.4126    8.8489 H         1 <0>         0.1259
     38 H14        -4.5064   -0.9579    6.4310 H         1 <0>         0.1222
     39 H15        -5.2722    1.5314    4.3983 H         1 <0>         0.1320
     40 H16        -5.6477    3.9590    4.0692 H         1 <0>         0.1350
     41 H17        -3.5740    5.4963    4.2110 H         1 <0>         0.1868
@<TRIPOS>BOND
     1    1    2 1
     2    1   25 1
     3    1   26 1
     4    1   27 1
     5    2    6 1
     6    2    3 2
     7    3    4 1
     8    4    5 2
     9    4   28 1
    10    5    6 1
    11    5   22 1
    12    6    7 1
    13    7    8 1
    14    7   29 1
    15    7   30 1
    16    8    9 1
    17    8   31 1
    18    8   32 1
    19    9   10 1
    20   10   11 1
    21   10   17 1
    22   10   33 1
    23   11   16 ar
    24   11   12 ar
    25   12   13 ar
    26   12   34 1
    27   13   14 ar
    28   13   35 1
    29   14   15 ar
    30   14   36 1
    31   15   16 ar
    32   15   37 1
    33   16   38 1
    34   17   21 1
    35   17   18 2
    36   18   19 1
    37   18   39 1
    38   19   20 2
    39   19   40 1
    40   20   21 1
    41   20   41 1
    42   22   23 2
    43   22   24 1
@<TRIPOS>MOLECULE
CHEMBL166126
   48    51     0     0     0
SMALL
USER_CHARGES

@<TRIPOS>ATOM
      1 C1         -1.9286    0.1708   -1.8274 C.ar      1 <0>        -0.0942
      2 C2         -1.0249    1.2157   -1.8743 C.ar      1 <0>        -0.0936
      3 C3          0.3163    0.9976   -1.6006 C.ar      1 <0>        -0.0438
      4 C4          0.7530   -0.2771   -1.2772 C.ar      1 <0>        -0.1408
      5 C5         -0.1685   -1.3425   -1.2289 C.ar      1 <0>        -0.1433
      6 C6         -1.5062   -1.1096   -1.5055 C.ar      1 <0>        -0.0429
      7 C7          0.6164   -2.5398   -0.8610 C.2       1 <0>         0.5735
      8 O1          0.1735   -3.6617   -0.7196 O.2       1 <0>        -0.4565
      9 N1          1.9034   -2.1787   -0.7096 N.am      1 <0>        -0.5797
     10 C8          2.0668   -0.8630   -0.9371 C.2       1 <0>         0.5752
     11 O2          3.1178   -0.2578   -0.8741 O.2       1 <0>        -0.4443
     12 C9          2.9846   -3.0973   -0.3444 C.3       1 <0>         0.1166
     13 C10         3.6015   -3.6890   -1.6133 C.3       1 <0>         0.0461
     14 O3          4.2275   -2.6494   -2.3680 O.3       1 <0>        -0.2881
     15 C11         4.8230   -3.0056   -3.5230 C.2       1 <0>         0.4559
     16 S1          4.8063   -4.6421   -4.0256 S.2       1 <0>        -0.4475
     17 N2          5.4318   -2.0736   -4.2827 N.am      1 <0>        -0.4526
     18 C12         5.3549   -0.7203   -3.9271 C.ar      1 <0>         0.0820
     19 C13         4.8660    0.2104   -4.8341 C.ar      1 <0>        -0.0939
     20 C14         4.7907    1.5435   -4.4811 C.ar      1 <0>        -0.0947
     21 C15         5.2026    1.9520   -3.2246 C.ar      1 <0>        -0.0178
     22 C16         5.6902    1.0264   -2.3188 C.ar      1 <0>        -0.0758
     23 C17         5.7621   -0.3087   -2.6651 C.ar      1 <0>        -0.0757
     24 Cl1         5.1078    3.6286   -2.7843 Cl        1 <0>        -0.0502
     25 C18         6.1145   -2.4430   -5.3845 C.2       1 <0>         0.5394
     26 O4          6.1013   -3.6025   -5.7469 O.2       1 <0>        -0.3753
     27 C19         6.8806   -1.4359   -6.1530 C.ar      1 <0>        -0.0784
     28 C20         7.3038   -0.2442   -5.5544 C.ar      1 <0>        -0.1421
     29 C21         8.0164    0.6677   -6.3075 C.ar      1 <0>         0.1231
     30 N3          8.2984    0.4280   -7.5730 N.ar      1 <0>        -0.4515
     31 C22         7.9191   -0.6817   -8.1765 C.ar      1 <0>         0.1733
     32 C23         7.2063   -1.6520   -7.4952 C.ar      1 <0>        -0.0918
     33 Cl2         8.3251   -0.9308   -9.8458 Cl        1 <0>        -0.0104
     34 H1         -2.9717    0.3541   -2.0386 H         1 <0>         0.1443
     35 H2         -1.3661    2.2089   -2.1264 H         1 <0>         0.1438
     36 H3          1.0181    1.8176   -1.6395 H         1 <0>         0.1419
     37 H4         -2.2168   -1.9221   -1.4700 H         1 <0>         0.1435
     38 H5          3.7489   -2.5557    0.2128 H         1 <0>         0.1131
     39 H6          2.5851   -3.9010    0.2742 H         1 <0>         0.1317
     40 H7          4.3449   -4.4381   -1.3407 H         1 <0>         0.1138
     41 H8          2.8203   -4.1543   -2.2143 H         1 <0>         0.0983
     42 H9          4.5451   -0.1078   -5.8150 H         1 <0>         0.1381
     43 H10         4.4105    2.2678   -5.1862 H         1 <0>         0.1476
     44 H11         6.0110    1.3477   -1.3389 H         1 <0>         0.1477
     45 H12         6.1385   -1.0314   -1.9562 H         1 <0>         0.1408
     46 H13         7.0761   -0.0403   -4.5185 H         1 <0>         0.1570
     47 H14         8.3471    1.5903   -5.8538 H         1 <0>         0.1761
     48 H15         6.9023   -2.5605   -7.9938 H         1 <0>         0.1623
@<TRIPOS>BOND
     1    1    6 ar
     2    1    2 ar
     3    1   34 1
     4    2    3 ar
     5    2   35 1
     6    3    4 ar
     7    3   36 1
     8    4   10 1
     9    4    5 ar
    10    5    6 ar
    11    5    7 1
    12    6   37 1
    13    7    8 2
    14    7    9 am
    15    9   10 am
    16    9   12 1
    17   10   11 2
    18   12   13 1
    19   12   38 1
    20   12   39 1
    21   13   14 1
    22   13   40 1
    23   13   41 1
    24   14   15 1
    25   15   16 2
    26   15   17 1
    27   17   18 1
    28   17   25 am
    29   18   23 ar
    30   18   19 ar
    31   19   20 ar
    32   19   42 1
    33   20   21 ar
    34   20   43 1
    35   21   22 ar
    36   21   24 1
    37   22   23 ar
    38   22   44 1
    39   23   45 1
    40   25   26 2
    41   25   27 1
    42   27   32 ar
    43   27   28 ar
    44   28   29 ar
    45   28   46 1
    46   29   30 ar
    47   29   47 1
    48   30   31 ar
    49   31   32 ar
    50   31   33 1
    51   32   48 1
@<TRIPOS>MOLECULE
CHEMBL82856
   49    50     0     0     0
SMALL
USER_CHARGES

@<TRIPOS>ATOM
      1 C1         -0.0187    1.5258    0.0104 C.3       1 <0>        -0.1505
      2 C2          0.0021   -0.0041    0.0020 C.3       1 <0>        -0.0689
      3 C3         -1.4117   -0.5257    0.0127 C.2       1 <0>        -0.1925
      4 C4         -2.0970   -0.6703    1.2272 C.2       1 <0>        -0.0101
      5 C5         -3.3763   -1.1434    1.2188 C.2       1 <0>        -0.2053
      6 C6         -3.9789   -1.4753   -0.0066 C.2       1 <0>         0.5190
      7 N1         -3.2945   -1.3252   -1.1566 N.am      1 <0>        -0.6057
      8 C7         -2.0229   -0.8497   -1.1506 C.2       1 <0>         0.1563
      9 C8         -1.2820   -0.6862   -2.4527 C.3       1 <0>        -0.1307
     10 O1         -5.1230   -1.9001   -0.0285 O.2       1 <0>        -0.5396
     11 C9         -4.1353   -1.3089    2.5101 C.3       1 <0>        -0.0483
     12 C10        -4.9878   -0.0640    2.7638 C.3       1 <0>        -0.0568
     13 C11        -5.7469   -0.2295    4.0551 C.ar      1 <0>        -0.1542
     14 C12        -5.2970    0.3761    5.2157 C.ar      1 <0>        -0.0377
     15 C13        -6.0275    0.1965    6.3820 C.ar      1 <0>        -0.1712
     16 C14        -7.1725   -0.5748    6.3499 C.ar      1 <0>         0.1653
     17 N2         -7.5760   -1.1398    5.2281 N.ar      1 <0>        -0.5373
     18 C15        -6.9102   -0.9869    4.0953 C.ar      1 <0>         0.3252
     19 O2         -7.3649   -1.5806    2.9633 O.3       1 <0>        -0.2943
     20 C16        -8.5668   -2.3463    3.0700 C.3       1 <0>         0.0413
     21 C17        -7.9708   -0.7741    7.6125 C.3       1 <0>        -0.1095
     22 C18        -5.5759    0.8361    7.6696 C.3       1 <0>        -0.0749
     23 C19        -4.7438   -0.1659    8.4723 C.3       1 <0>        -0.1497
     24 H1          1.0039    1.9031    0.0027 H         1 <0>         0.0590
     25 H2         -0.5459    1.8868   -0.8726 H         1 <0>         0.0541
     26 H3         -0.5289    1.8773    0.9072 H         1 <0>         0.0562
     27 H4          0.5123   -0.3556   -0.8948 H         1 <0>         0.0740
     28 H5          0.5293   -0.3651    0.8851 H         1 <0>         0.0743
     29 H6         -1.6171   -0.4103    2.1592 H         1 <0>         0.1335
     30 H7         -0.7486   -1.6078   -2.6854 H         1 <0>         0.0897
     31 H8         -1.9923   -0.4663   -3.2498 H         1 <0>         0.0770
     32 H9         -0.5693    0.1338   -2.3648 H         1 <0>         0.0957
     33 H10        -3.7160   -1.5564   -1.9991 H         1 <0>         0.4130
     34 H11        -4.7815   -2.1841    2.4421 H         1 <0>         0.0816
     35 H12        -3.4309   -1.4404    3.3314 H         1 <0>         0.0702
     36 H13        -4.3416    0.8112    2.8318 H         1 <0>         0.0697
     37 H14        -5.6923    0.0675    1.9425 H         1 <0>         0.0798
     38 H15        -4.3978    0.9743    5.2137 H         1 <0>         0.1390
     39 H16        -8.8185   -2.7651    2.0957 H         1 <0>         0.0958
     40 H17        -8.4201   -3.1548    3.7861 H         1 <0>         0.0568
     41 H18        -9.3785   -1.7029    3.4097 H         1 <0>         0.0561
     42 H19        -8.7199    0.0131    7.6968 H         1 <0>         0.0794
     43 H20        -8.4658   -1.7447    7.5799 H         1 <0>         0.0763
     44 H21        -7.3041   -0.7351    8.4739 H         1 <0>         0.0806
     45 H22        -4.9705    1.7146    7.4461 H         1 <0>         0.0720
     46 H23        -6.4474    1.1342    8.2525 H         1 <0>         0.0750
     47 H24        -4.4171    0.2967    9.4037 H         1 <0>         0.0598
     48 H25        -5.3492   -1.0443    8.6958 H         1 <0>         0.0566
     49 H26        -3.8723   -0.4639    7.8895 H         1 <0>         0.0553
@<TRIPOS>BOND
     1    1    2 1
     2    1   24 1
     3    1   25 1
     4    1   26 1
     5    2   27 1
     6    2   28 1
     7    2    3 1
     8    3    8 2
     9    3    4 1
    10    4   29 1
    11    4    5 2
    12    5    6 1
    13    5   11 1
    14    6   10 2
    15    6    7 am
    16    7   33 1
    17    7    8 1
    18    8    9 1
    19    9   30 1
    20    9   31 1
    21    9   32 1
    22   11   12 1
    23   11   34 1
    24   11   35 1
    25   12   13 1
    26   12   36 1
    27   12   37 1
    28   13   18 ar
    29   13   14 ar
    30   14   15 ar
    31   14   38 1
    32   15   16 ar
    33   15   22 1
    34   16   17 ar
    35   16   21 1
    36   17   18 ar
    37   18   19 1
    38   19   20 1
    39   20   39 1
    40   20   40 1
    41   20   41 1
    42   21   42 1
    43   21   43 1
    44   21   44 1
    45   22   23 1
    46   22   45 1
    47   22   46 1
    48   23   47 1
    49   23   48 1
    50   23   49 1
@<TRIPOS>MOLECULE
CHEMBL400547
   36    37     0     0     0
SMALL
USER_CHARGES

@<TRIPOS>ATOM
      1 C1         -0.0187    1.5258    0.0104 C.3       1 <0>        -0.1429
      2 C2          0.0021   -0.0041    0.0020 C.3       1 <0>        -0.0489
      3 C3          0.7309   -0.5033    1.2229 C.2       1 <0>         0.0735
      4 C4          0.1560   -1.3810    2.0810 C.2       1 <0>        -0.3168
      5 S1          1.4655   -1.5829    3.2777 S.3       1 <0>         0.3260
      6 C5          2.5879   -0.5464    2.5718 C.2       1 <0>         0.1935
      7 N1          1.9601   -0.1094    1.5013 N.2       1 <0>        -0.5367
      8 N2          3.8683   -0.2323    3.0103 N.pl3     1 <0>        -0.5633
      9 C6          4.3491   -0.7885    4.1398 C.2       1 <0>         0.5319
     10 S2          3.3822   -1.8821    5.0343 S.2       1 <0>        -0.5102
     11 N3          5.5912   -0.4839    4.5652 N.pl3     1 <0>        -0.6665
     12 C7          6.1138   -1.0885    5.7930 C.3       1 <0>         0.1249
     13 C8          7.5336   -0.5787    6.0482 C.3       1 <0>        -0.0929
     14 C9          8.0713   -1.2007    7.3112 C.ar      1 <0>        -0.1596
     15 C10         7.8710   -0.5764    8.5303 C.ar      1 <0>         0.1377
     16 C11         8.3656   -1.1488    9.6901 C.ar      1 <0>        -0.1605
     17 C12         9.0588   -2.3430    9.6309 C.ar      1 <0>        -0.0558
     18 C13         9.2598   -2.9669    8.4142 C.ar      1 <0>        -0.1605
     19 C14         8.7608   -2.3995    7.2537 C.ar      1 <0>         0.1377
     20 F1          8.9522   -3.0127    6.0652 F         1 <0>        -0.1263
     21 F2          7.1938    0.5911    8.5884 F         1 <0>        -0.1263
     22 H1          1.0039    1.9031    0.0027 H         1 <0>         0.0593
     23 H2         -0.5459    1.8868   -0.8726 H         1 <0>         0.0553
     24 H3         -0.5289    1.8773    0.9072 H         1 <0>         0.0508
     25 H4         -1.0205   -0.3814    0.0098 H         1 <0>         0.0781
     26 H5          0.5123   -0.3556   -0.8948 H         1 <0>         0.0730
     27 H6         -0.8241   -1.8335    2.0494 H         1 <0>         0.1807
     28 H7          4.4161    0.3873    2.5035 H         1 <0>         0.4178
     29 H8          6.1390    0.1358    4.0584 H         1 <0>         0.4066
     30 H9          5.4739   -0.8170    6.6326 H         1 <0>         0.0975
     31 H10         6.1311   -2.1730    5.6851 H         1 <0>         0.0975
     32 H11         8.1735   -0.8502    5.2086 H         1 <0>         0.0925
     33 H12         7.5164    0.5058    6.1561 H         1 <0>         0.0925
     34 H13         8.2097   -0.6617   10.6414 H         1 <0>         0.1465
     35 H14         9.4442   -2.7887   10.5360 H         1 <0>         0.1476
     36 H15         9.8023   -3.8997    8.3689 H         1 <0>         0.1465
@<TRIPOS>BOND
     1    1    2 1
     2    1   22 1
     3    1   23 1
     4    1   24 1
     5    2    3 1
     6    2   25 1
     7    2   26 1
     8    3    7 1
     9    3    4 2
    10    4    5 1
    11    4   27 1
    12    5    6 1
    13    6    7 2
    14    6    8 1
    15    8    9 1
    16    8   28 1
    17    9   10 2
    18    9   11 1
    19   11   12 1
    20   11   29 1
    21   12   13 1
    22   12   30 1
    23   12   31 1
    24   13   14 1
    25   13   32 1
    26   13   33 1
    27   14   19 ar
    28   14   15 ar
    29   15   16 ar
    30   15   21 1
    31   16   17 ar
    32   16   34 1
    33   17   18 ar
    34   17   35 1
    35   18   19 ar
    36   18   36 1
    37   19   20 1
@<TRIPOS>MOLECULE
CHEMBL191910
   37    39     0     0     0
SMALL
USER_CHARGES

@<TRIPOS>ATOM
      1 C1          1.0260    2.7152   -0.0176 C.ar      1 <0>        -0.0935
      2 C2          2.3657    3.0251    0.1240 C.ar      1 <0>        -0.0936
      3 C3          3.3232    2.0229    0.1175 C.ar      1 <0>        -0.0443
      4 C4          2.9336    0.7015   -0.0315 C.ar      1 <0>        -0.1426
      5 C5          1.5675    0.3855   -0.1753 C.ar      1 <0>        -0.1420
      6 C6          0.6215    1.3980   -0.1675 C.ar      1 <0>        -0.0424
      7 C7          1.5046   -1.0851   -0.3101 C.2       1 <0>         0.5739
      8 O1          0.4928   -1.7411   -0.4541 O.2       1 <0>        -0.4551
      9 N1          2.7558   -1.5753   -0.2470 N.am      1 <0>        -0.5796
     10 C8          3.6546   -0.5878   -0.0837 C.2       1 <0>         0.5765
     11 O2          4.8573   -0.7315    0.0054 O.2       1 <0>        -0.4528
     12 C9          3.0949   -2.9973   -0.3429 C.3       1 <0>         0.1134
     13 C10         3.3343   -3.3668   -1.8081 C.3       1 <0>         0.0525
     14 O3          4.4841   -2.6705   -2.2932 O.3       1 <0>        -0.3003
     15 C11         4.8341   -2.8868   -3.5765 C.2       1 <0>         0.4986
     16 S1          3.9138   -3.9563   -4.5462 S.2       1 <0>        -0.5767
     17 N2          5.9086   -2.2612   -4.0966 N.pl3     1 <0>        -0.5901
     18 C12         6.3247   -2.5524   -5.4003 C.ar      1 <0>         0.1269
     19 C13         5.3931   -2.6271   -6.4276 C.ar      1 <0>        -0.0625
     20 C14         5.8067   -2.9148   -7.7135 C.ar      1 <0>        -0.0776
     21 C15         7.1474   -3.1290   -7.9786 C.ar      1 <0>        -0.0884
     22 C16         8.0776   -3.0557   -6.9573 C.ar      1 <0>        -0.0807
     23 C17         7.6707   -2.7618   -5.6707 C.ar      1 <0>        -0.1082
     24 I1          7.7703   -3.5658   -9.9306 I         1 <0>        -0.0341
     25 H1          0.2890    3.5046   -0.0068 H         1 <0>         0.1449
     26 H2          2.6685    4.0553    0.2400 H         1 <0>         0.1445
     27 H3          4.3685    2.2709    0.2277 H         1 <0>         0.1428
     28 H4         -0.4266    1.1617   -0.2774 H         1 <0>         0.1443
     29 H5          3.9983   -3.1951    0.2340 H         1 <0>         0.1129
     30 H6          2.2732   -3.5942    0.0528 H         1 <0>         0.1324
     31 H7          3.4991   -4.4412   -1.8897 H         1 <0>         0.1138
     32 H8          2.4632   -3.0868   -2.4005 H         1 <0>         0.0988
     33 H9          6.3935   -1.6090   -3.5671 H         1 <0>         0.4200
     34 H10         4.3462   -2.4607   -6.2211 H         1 <0>         0.1549
     35 H11         5.0827   -2.9730   -8.5128 H         1 <0>         0.1381
     36 H12         9.1235   -3.2241   -7.1672 H         1 <0>         0.1381
     37 H13         8.3980   -2.6997   -4.8747 H         1 <0>         0.1370
@<TRIPOS>BOND
     1    1    6 ar
     2    1    2 ar
     3    1   25 1
     4    2    3 ar
     5    2   26 1
     6    3    4 ar
     7    3   27 1
     8    4   10 1
     9    4    5 ar
    10    5    6 ar
    11    5    7 1
    12    6   28 1
    13    7    8 2
    14    7    9 am
    15    9   10 am
    16    9   12 1
    17   10   11 2
    18   12   13 1
    19   12   29 1
    20   12   30 1
    21   13   14 1
    22   13   31 1
    23   13   32 1
    24   14   15 1
    25   15   16 2
    26   15   17 1
    27   17   18 1
    28   17   33 1
    29   18   23 ar
    30   18   19 ar
    31   19   20 ar
    32   19   34 1
    33   20   21 ar
    34   20   35 1
    35   21   22 ar
    36   21   24 1
    37   22   23 ar
    38   22   36 1
    39   23   37 1
@<TRIPOS>MOLECULE
CHEMBL422371
   49    53     0     0     0
SMALL
USER_CHARGES

@<TRIPOS>ATOM
      1 C1         -0.0187    1.5258    0.0104 C.3       1 <0>        -0.1723
      2 C2          0.0021   -0.0041    0.0020 C.3       1 <0>         0.1348
      3 N1          0.7106   -0.4894    1.1889 N.pl3     1 <0>        -0.5764
      4 C3          2.0788   -0.6988    1.1513 C.ar      1 <0>         0.4288
      5 C4          2.9157   -0.0009    2.0375 C.ar      1 <0>        -0.2014
      6 C5          4.2850   -0.2896    2.0388 C.ar      1 <0>         0.0247
      7 C6          4.7626   -1.2214    1.1333 C.ar      1 <0>        -0.1578
      8 C7          3.8826   -1.8342    0.2602 C.ar      1 <0>         0.1801
      9 N2          2.5920   -1.5643    0.2902 N.ar      1 <0>        -0.4929
     10 C8          6.2294   -1.5656    1.0998 C.3       1 <0>        -0.0609
     11 S1          6.5518   -2.9492    2.2277 S.3       1 <0>         0.0571
     12 C9          8.2851   -3.2274    2.0765 C.2       1 <0>         0.2190
     13 N3          9.0910   -2.5410    1.3058 N.2       1 <0>        -0.4810
     14 C10        10.3524   -3.0329    1.4455 C.ar      1 <0>         0.0309
     15 C11        11.5847   -2.6988    0.8818 C.ar      1 <0>        -0.0626
     16 C12        12.7125   -3.4061    1.2365 C.ar      1 <0>        -0.1152
     17 C13        12.6297   -4.4468    2.1487 C.ar      1 <0>        -0.0913
     18 C14        11.4172   -4.7875    2.7136 C.ar      1 <0>        -0.0901
     19 C15        10.2733   -4.0864    2.3685 C.ar      1 <0>         0.0099
     20 O1          8.9751   -4.1722    2.7403 O.3       1 <0>        -0.1922
     21 C16         2.3849    1.0420    2.9194 C.2       1 <0>         0.5814
     22 O2          3.0719    2.0317    3.0831 O.2       1 <0>        -0.5180
     23 N4          1.2224    1.0023    3.5540 N.am      1 <0>        -0.6425
     24 C17         0.2974   -0.0407    3.5350 C.ar      1 <0>         0.0890
     25 C18         0.0164   -0.7405    2.3715 C.ar      1 <0>         0.3815
     26 N5         -0.9210   -1.6798    2.3740 N.ar      1 <0>        -0.4728
     27 C19        -1.5808   -2.0050    3.4699 C.ar      1 <0>         0.1917
     28 C20        -1.3176   -1.3733    4.6697 C.ar      1 <0>        -0.1392
     29 C21        -0.3684   -0.3804    4.7081 C.ar      1 <0>        -0.0335
     30 C22        -0.0619    0.3317    6.0004 C.3       1 <0>        -0.1227
     31 Cl1        -2.7960   -3.2429    3.4024 Cl        1 <0>        -0.0153
     32 H1          1.0039    1.9031    0.0027 H         1 <0>         0.0556
     33 H2         -0.5459    1.8868   -0.8726 H         1 <0>         0.0748
     34 H3         -0.5289    1.8773    0.9072 H         1 <0>         0.0555
     35 H4         -1.0205   -0.3814    0.0098 H         1 <0>         0.0862
     36 H5          0.5123   -0.3556   -0.8948 H         1 <0>         0.0873
     37 H6          4.9532    0.2032    2.7295 H         1 <0>         0.1554
     38 H7          4.2590   -2.5464   -0.4592 H         1 <0>         0.1741
     39 H8          6.5129   -1.8494    0.0863 H         1 <0>         0.1184
     40 H9          6.8131   -0.6993    1.4112 H         1 <0>         0.1163
     41 H10        11.6538   -1.8893    0.1702 H         1 <0>         0.1375
     42 H11        13.6667   -3.1486    0.8010 H         1 <0>         0.1402
     43 H12        13.5201   -4.9950    2.4190 H         1 <0>         0.1435
     44 H13        11.3603   -5.5996    3.4233 H         1 <0>         0.1378
     45 H14         0.9908    1.7792    4.0866 H         1 <0>         0.4154
     46 H15        -1.8496   -1.6579    5.5655 H         1 <0>         0.1587
     47 H16        -0.7146    1.1989    6.1010 H         1 <0>         0.0885
     48 H17        -0.2277   -0.3468    6.8373 H         1 <0>         0.0872
     49 H18         0.9781    0.6580    5.9977 H         1 <0>         0.0770
@<TRIPOS>BOND
     1    1    2 1
     2    1   32 1
     3    1   33 1
     4    1   34 1
     5    2    3 1
     6    2   35 1
     7    2   36 1
     8    3   25 1
     9    3    4 1
    10    4    9 ar
    11    4    5 ar
    12    5    6 ar
    13    5   21 1
    14    6    7 ar
    15    6   37 1
    16    7    8 ar
    17    7   10 1
    18    8    9 ar
    19    8   38 1
    20   10   11 1
    21   10   39 1
    22   10   40 1
    23   11   12 1
    24   12   20 1
    25   12   13 2
    26   13   14 1
    27   14   19 ar
    28   14   15 ar
    29   15   16 ar
    30   15   41 1
    31   16   17 ar
    32   16   42 1
    33   17   18 ar
    34   17   43 1
    35   18   19 ar
    36   18   44 1
    37   19   20 1
    38   21   22 2
    39   21   23 am
    40   23   24 1
    41   23   45 1
    42   24   29 ar
    43   24   25 ar
    44   25   26 ar
    45   26   27 ar
    46   27   28 ar
    47   27   31 1
    48   28   29 ar
    49   28   46 1
    50   29   30 1
    51   30   47 1
    52   30   48 1
    53   30   49 1
@<TRIPOS>MOLECULE
CHEMBL85947
   40    41     0     0     0
SMALL
USER_CHARGES

@<TRIPOS>ATOM
      1 C1         -0.0127    1.0858    0.0080 C.3       1 <0>        -0.0927
      2 C2         -0.7416    1.5850   -1.2129 C.2       1 <0>        -0.2504
      3 C3         -0.8880    2.9241   -1.4341 C.2       1 <0>         0.1896
      4 N1         -1.5326    3.3558   -2.5150 N.2       1 <0>        -0.5177
      5 C4         -2.0422    2.5129   -3.3925 C.2       1 <0>         0.3679
      6 N2         -1.9272    1.1664   -3.2238 N.am      1 <0>        -0.6153
      7 C5         -1.2767    0.6793   -2.1455 C.2       1 <0>         0.5343
      8 O1         -1.1596   -0.5240   -1.9813 O.2       1 <0>        -0.5299
      9 S1         -2.8862    3.1396   -4.8065 S.3       1 <0>        -0.0201
     10 C6         -2.7916    4.9407   -4.6115 C.3       1 <0>        -0.0662
     11 C7         -3.3849    5.6193   -5.8478 C.3       1 <0>        -0.1398
     12 C8         -3.5812    5.3614   -3.3704 C.3       1 <0>        -0.1526
     13 C9         -0.3188    3.9153   -0.4520 C.3       1 <0>        -0.0010
     14 C10        -1.4476    4.7815    0.1106 C.3       1 <0>        -0.1454
     15 C11         0.6876    4.7931   -1.1503 C.ar      1 <0>        -0.1561
     16 C12         0.2969    5.5780   -2.2214 C.ar      1 <0>         0.1504
     17 C13         1.2225    6.3842   -2.8623 C.ar      1 <0>        -0.1722
     18 C14         2.5360    6.4053   -2.4330 C.ar      1 <0>        -0.0589
     19 C15         2.9274    5.6217   -1.3639 C.ar      1 <0>        -0.1677
     20 C16         2.0021    4.8194   -0.7175 C.ar      1 <0>         0.1355
     21 F1          2.3836    4.0581    0.3313 F         1 <0>        -0.1279
     22 F2         -0.9869    5.5572   -2.6416 F         1 <0>        -0.0973
     23 H1          0.0021   -0.0041    0.0020 H         1 <0>         0.0790
     24 H2          1.0099    1.4631    0.0003 H         1 <0>         0.0705
     25 H3         -0.5229    1.4373    0.9048 H         1 <0>         0.0710
     26 H4         -2.3080    0.5596   -3.8777 H         1 <0>         0.4204
     27 H5         -1.7496    5.2396   -4.4979 H         1 <0>         0.1155
     28 H6         -4.4270    5.3204   -5.9614 H         1 <0>         0.0671
     29 H7         -3.3281    6.7015   -5.7306 H         1 <0>         0.0835
     30 H8         -2.8224    5.3196   -6.7320 H         1 <0>         0.0671
     31 H9         -3.1585    4.8779   -2.4897 H         1 <0>         0.0830
     32 H10        -3.5244    6.4436   -3.2532 H         1 <0>         0.0688
     33 H11        -4.6232    5.0625   -3.4841 H         1 <0>         0.0597
     34 H12         0.1691    3.3802    0.3627 H         1 <0>         0.1109
     35 H13        -1.9355    5.3165   -0.7041 H         1 <0>         0.0766
     36 H14        -2.1755    4.1465    0.6157 H         1 <0>         0.0644
     37 H15        -1.0359    5.4984    0.8210 H         1 <0>         0.0667
     38 H16         0.9180    6.9964   -3.6983 H         1 <0>         0.1420
     39 H17         3.2573    7.0343   -2.9334 H         1 <0>         0.1436
     40 H18         3.9542    5.6384   -1.0296 H         1 <0>         0.1435
@<TRIPOS>BOND
     1    1   23 1
     2    1   24 1
     3    1   25 1
     4    1    2 1
     5    2    7 1
     6    2    3 2
     7    3   13 1
     8    3    4 1
     9    4    5 2
    10    5    9 1
    11    5    6 1
    12    6   26 1
    13    6    7 am
    14    7    8 2
    15    9   10 1
    16   10   11 1
    17   10   12 1
    18   10   27 1
    19   11   28 1
    20   11   29 1
    21   11   30 1
    22   12   31 1
    23   12   32 1
    24   12   33 1
    25   13   14 1
    26   13   15 1
    27   13   34 1
    28   14   35 1
    29   14   36 1
    30   14   37 1
    31   15   20 ar
    32   15   16 ar
    33   16   17 ar
    34   16   22 1
    35   17   18 ar
    36   17   38 1
    37   18   19 ar
    38   18   39 1
    39   19   20 ar
    40   19   40 1
    41   20   21 1
@<TRIPOS>MOLECULE
CHEMBL85947__1
   40    41     0     0     0
SMALL
USER_CHARGES

@<TRIPOS>ATOM
      1 C1         -0.4895    1.0869    0.0802 C.3       1 <0>        -0.0964
      2 C2         -1.0324    1.6547   -1.2059 C.2       1 <0>        -0.2281
      3 C3         -0.9534    2.9786   -1.4583 C.2       1 <0>         0.1615
      4 N1         -1.4533    3.4661   -2.6316 N.pl3     1 <0>        -0.5908
      5 C4         -2.0258    2.6274   -3.5370 C.2       1 <0>         0.3998
      6 N2         -2.1114    1.3322   -3.3070 N.2       1 <0>        -0.5812
      7 C5         -1.6294    0.8059   -2.1731 C.2       1 <0>         0.5186
      8 O1         -1.7083   -0.3964   -1.9710 O.2       1 <0>        -0.5053
      9 S1         -2.6640    3.2837   -5.0426 S.3       1 <0>        -0.0253
     10 C6         -3.3135    1.8314   -5.9139 C.3       1 <0>        -0.0594
     11 C7         -4.0161    2.2786   -7.1974 C.3       1 <0>        -0.1387
     12 C8         -2.1601    0.8895   -6.2655 C.3       1 <0>        -0.1544
     13 C9         -0.3204    3.9086   -0.4556 C.3       1 <0>        -0.0118
     14 C10        -1.3818    4.8625    0.0963 C.3       1 <0>        -0.1585
     15 C11         0.7697    4.7040   -1.1264 C.ar      1 <0>        -0.1726
     16 C12         0.6577    6.0795   -1.2336 C.ar      1 <0>         0.1355
     17 C13         1.6599    6.8093   -1.8503 C.ar      1 <0>        -0.1605
     18 C14         2.7719    6.1649   -2.3587 C.ar      1 <0>        -0.0540
     19 C15         2.8846    4.7915   -2.2526 C.ar      1 <0>        -0.1599
     20 C16         1.8865    4.0603   -1.6309 C.ar      1 <0>         0.1401
     21 F1          1.9998    2.7185   -1.5220 F         1 <0>        -0.1208
     22 F2         -0.4294    6.7096   -0.7372 F         1 <0>        -0.1201
     23 H1         -0.6424    0.0078    0.0940 H         1 <0>         0.0837
     24 H2          0.5763    1.3038    0.1518 H         1 <0>         0.0711
     25 H3         -1.0098    1.5384    0.9249 H         1 <0>         0.0693
     26 H4         -1.4004    4.4160   -2.8205 H         1 <0>         0.4209
     27 H5         -4.0249    1.3110   -5.2727 H         1 <0>         0.1095
     28 H6         -3.3046    2.7990   -7.8386 H         1 <0>         0.0680
     29 H7         -4.4063    1.4059   -7.7210 H         1 <0>         0.0853
     30 H8         -4.8377    2.9496   -6.9469 H         1 <0>         0.0683
     31 H9         -2.5504    0.0168   -6.7892 H         1 <0>         0.0712
     32 H10        -1.4487    1.4099   -6.9068 H         1 <0>         0.0620
     33 H11        -1.6596    0.5709   -5.3512 H         1 <0>         0.0806
     34 H12         0.1051    3.3264    0.3618 H         1 <0>         0.1258
     35 H13        -2.1702    4.2872    0.5815 H         1 <0>         0.0649
     36 H14        -0.9239    5.5351    0.8215 H         1 <0>         0.0832
     37 H15        -1.8073    5.4446   -0.7211 H         1 <0>         0.0742
     38 H16         1.5725    7.8825   -1.9344 H         1 <0>         0.1482
     39 H17         3.5531    6.7349   -2.8395 H         1 <0>         0.1487
     40 H18         3.7537    4.2889   -2.6509 H         1 <0>         0.1472
@<TRIPOS>BOND
     1    1   23 1
     2    1   24 1
     3    1   25 1
     4    1    2 1
     5    2    7 1
     6    2    3 2
     7    3   13 1
     8    3    4 1
     9    4    5 1
    10    4   26 1
    11    5    9 1
    12    5    6 2
    13    6    7 1
    14    7    8 2
    15    9   10 1
    16   10   11 1
    17   10   12 1
    18   10   27 1
    19   11   28 1
    20   11   29 1
    21   11   30 1
    22   12   31 1
    23   12   32 1
    24   12   33 1
    25   13   14 1
    26   13   15 1
    27   13   34 1
    28   14   35 1
    29   14   36 1
    30   14   37 1
    31   15   20 ar
    32   15   16 ar
    33   16   17 ar
    34   16   22 1
    35   17   18 ar
    36   17   38 1
    37   18   19 ar
    38   18   39 1
    39   19   20 ar
    40   19   40 1
    41   20   21 1
@<TRIPOS>MOLECULE
CHEMBL85947__2
   40    41     0     0     0
SMALL
USER_CHARGES

@<TRIPOS>ATOM
      1 C1          2.0169    1.1677   -0.7678 C.3       1 <0>        -0.0930
      2 C2          0.7781    1.6015   -1.5082 C.2       1 <0>        -0.2504
      3 C3          0.5179    2.9266   -1.7084 C.2       1 <0>         0.1922
      4 N1         -0.5781    3.3004   -2.3636 N.2       1 <0>        -0.5221
      5 C4         -1.4337    2.4126   -2.8325 C.2       1 <0>         0.3685
      6 N2         -1.2264    1.0773   -2.6624 N.am      1 <0>        -0.6151
      7 C5         -0.1255    0.6480   -2.0091 C.2       1 <0>         0.5343
      8 O1          0.0789   -0.5446   -1.8525 O.2       1 <0>        -0.5295
      9 S1         -2.8692    2.9635   -3.6929 S.3       1 <0>        -0.0185
     10 C6         -2.8172    4.7687   -3.5225 C.3       1 <0>        -0.0688
     11 C7         -3.8056    5.4023   -4.5036 C.3       1 <0>        -0.1388
     12 C8         -3.1981    5.1572   -2.0925 C.3       1 <0>        -0.1426
     13 C9          1.4737    3.9679   -1.1857 C.3       1 <0>        -0.0009
     14 C10         2.1262    4.6974   -2.3618 C.3       1 <0>        -0.1516
     15 C11         0.7212    4.9586   -0.3352 C.ar      1 <0>        -0.1556
     16 C12        -0.1887    5.8227   -0.9195 C.ar      1 <0>         0.1610
     17 C13        -0.8795    6.7327   -0.1371 C.ar      1 <0>        -0.1722
     18 C14        -0.6608    6.7783    1.2268 C.ar      1 <0>        -0.0587
     19 C15         0.2479    5.9163    1.8113 C.ar      1 <0>        -0.1680
     20 C16         0.9353    5.0014    1.0316 C.ar      1 <0>         0.1351
     21 F1          1.8190    4.1548    1.6040 F         1 <0>        -0.1281
     22 F2         -0.4024    5.7786   -2.2528 F         1 <0>        -0.1074
     23 H1          2.0471    0.0793   -0.7166 H         1 <0>         0.0791
     24 H2          2.9001    1.5313   -1.2930 H         1 <0>         0.0707
     25 H3          1.9995    1.5786    0.2416 H         1 <0>         0.0715
     26 H4         -1.8653    0.4370   -3.0127 H         1 <0>         0.4207
     27 H5         -1.8104    5.1253   -3.7399 H         1 <0>         0.1206
     28 H6         -4.8124    5.0457   -4.2861 H         1 <0>         0.0663
     29 H7         -3.7743    6.4870   -4.4012 H         1 <0>         0.0834
     30 H8         -3.5342    5.1256   -5.5223 H         1 <0>         0.0691
     31 H9         -2.5641    4.6182   -1.3885 H         1 <0>         0.0627
     32 H10        -3.0597    6.2300   -1.9583 H         1 <0>         0.0698
     33 H11        -4.2418    4.9001   -1.9119 H         1 <0>         0.0639
     34 H12         2.2444    3.4849   -0.5850 H         1 <0>         0.1107
     35 H13         1.3555    5.1804   -2.9625 H         1 <0>         0.0812
     36 H14         2.8174    5.4506   -1.9838 H         1 <0>         0.0671
     37 H15         2.6704    3.9808   -2.9769 H         1 <0>         0.0642
     38 H16        -1.5893    7.4072   -0.5928 H         1 <0>         0.1422
     39 H17        -1.2000    7.4883    1.8363 H         1 <0>         0.1437
     40 H18         0.4185    5.9534    2.8771 H         1 <0>         0.1432
@<TRIPOS>BOND
     1    1   23 1
     2    1   24 1
     3    1   25 1
     4    1    2 1
     5    2    7 1
     6    2    3 2
     7    3   13 1
     8    3    4 1
     9    4    5 2
    10    5    9 1
    11    5    6 1
    12    6   26 1
    13    6    7 am
    14    7    8 2
    15    9   10 1
    16   10   11 1
    17   10   12 1
    18   10   27 1
    19   11   28 1
    20   11   29 1
    21   11   30 1
    22   12   31 1
    23   12   32 1
    24   12   33 1
    25   13   14 1
    26   13   15 1
    27   13   34 1
    28   14   35 1
    29   14   36 1
    30   14   37 1
    31   15   20 ar
    32   15   16 ar
    33   16   17 ar
    34   16   22 1
    35   17   18 ar
    36   17   38 1
    37   18   19 ar
    38   18   39 1
    39   19   20 ar
    40   19   40 1
    41   20   21 1
@<TRIPOS>MOLECULE
CHEMBL85947__3
   40    41     0     0     0
SMALL
USER_CHARGES

@<TRIPOS>ATOM
      1 C1          0.1384    1.1406    0.1811 C.3       1 <0>        -0.0964
      2 C2         -0.6971    1.5219   -1.0137 C.2       1 <0>        -0.2280
      3 C3         -0.9129    2.8205   -1.3135 C.2       1 <0>         0.1615
      4 N1         -1.6739    3.1375   -2.4018 N.pl3     1 <0>        -0.5907
      5 C4         -2.2099    2.1559   -3.1763 C.2       1 <0>         0.3998
      6 N2         -2.0096    0.8828   -2.8985 N.2       1 <0>        -0.5812
      7 C5         -1.2647    0.5221   -1.8448 C.2       1 <0>         0.5185
      8 O1         -1.0800   -0.6601   -1.5983 O.2       1 <0>        -0.5053
      9 S1         -3.1890    2.5935   -4.5744 S.3       1 <0>        -0.0254
     10 C6         -3.6773    0.9975   -5.2851 C.3       1 <0>        -0.0593
     11 C7         -4.6441    1.2313   -6.4476 C.3       1 <0>        -0.1388
     12 C8         -2.4346    0.2647   -5.7948 C.3       1 <0>        -0.1543
     13 C9         -0.3204    3.9086   -0.4556 C.3       1 <0>        -0.0118
     14 C10         0.7121    4.6931   -1.2677 C.3       1 <0>        -0.1586
     15 C11        -1.4137    4.8401    0.0005 C.ar      1 <0>        -0.1726
     16 C12        -2.4199    4.3739    0.8289 C.ar      1 <0>         0.1400
     17 C13        -3.4241    5.2306    1.2474 C.ar      1 <0>        -0.1599
     18 C14        -3.4219    6.5508    0.8382 C.ar      1 <0>        -0.0540
     19 C15        -2.4180    7.0172    0.0107 C.ar      1 <0>        -0.1605
     20 C16        -1.4095    6.1638   -0.4040 C.ar      1 <0>         0.1354
     21 F1         -0.4249    6.6215   -1.2080 F         1 <0>        -0.1201
     22 F2         -2.4225    3.0834    1.2287 F         1 <0>        -0.1208
     23 H1          0.1986    0.0545    0.2507 H         1 <0>         0.0837
     24 H2          1.1410    1.5536    0.0700 H         1 <0>         0.0693
     25 H3         -0.3199    1.5379    1.0867 H         1 <0>         0.0712
     26 H4         -1.8336    4.0681   -2.6239 H         1 <0>         0.4209
     27 H5         -4.1671    0.3940   -4.5209 H         1 <0>         0.1092
     28 H6         -4.1543    1.8348   -7.2118 H         1 <0>         0.0682
     29 H7         -4.9375    0.2723   -6.8747 H         1 <0>         0.0854
     30 H8         -5.5294    1.7534   -6.0845 H         1 <0>         0.0681
     31 H9         -2.7280   -0.6943   -6.2218 H         1 <0>         0.0712
     32 H10        -1.9448    0.8682   -6.5590 H         1 <0>         0.0623
     33 H11        -1.7458    0.0981   -4.9666 H         1 <0>         0.0807
     34 H12         0.1635    3.4631    0.4136 H         1 <0>         0.1258
     35 H13         1.1406    5.4801   -0.6472 H         1 <0>         0.0831
     36 H14         1.5029    4.0194   -1.5976 H         1 <0>         0.0649
     37 H15         0.2282    5.1386   -2.1369 H         1 <0>         0.0744
     38 H16        -4.2095    4.8671    1.8934 H         1 <0>         0.1472
     39 H17        -4.2055    7.2183    1.1651 H         1 <0>         0.1487
     40 H18        -2.4177    8.0488   -0.3090 H         1 <0>         0.1482
@<TRIPOS>BOND
     1    1   23 1
     2    1   24 1
     3    1   25 1
     4    1    2 1
     5    2    7 1
     6    2    3 2
     7    3   13 1
     8    3    4 1
     9    4    5 1
    10    4   26 1
    11    5    9 1
    12    5    6 2
    13    6    7 1
    14    7    8 2
    15    9   10 1
    16   10   11 1
    17   10   12 1
    18   10   27 1
    19   11   28 1
    20   11   29 1
    21   11   30 1
    22   12   31 1
    23   12   32 1
    24   12   33 1
    25   13   14 1
    26   13   15 1
    27   13   34 1
    28   14   35 1
    29   14   36 1
    30   14   37 1
    31   15   20 ar
    32   15   16 ar
    33   16   17 ar
    34   16   22 1
    35   17   18 ar
    36   17   38 1
    37   18   19 ar
    38   18   39 1
    39   19   20 ar
    40   19   40 1
    41   20   21 1
@<TRIPOS>MOLECULE
CHEMBL171919
   37    39     0     0     0
SMALL
USER_CHARGES

@<TRIPOS>ATOM
      1 C1         -0.0187    1.5258    0.0104 C.3       1 <0>        -0.1516
      2 C2          0.0021   -0.0041    0.0020 C.3       1 <0>        -0.0698
      3 C3          0.7074   -0.4901   -1.2379 C.2       1 <0>        -0.1787
      4 C4         -0.0022   -0.6268   -2.4396 C.2       1 <0>        -0.0202
      5 C5          0.6534   -1.0690   -3.5565 C.2       1 <0>        -0.2273
      6 C6          2.0295   -1.3768   -3.4711 C.2       1 <0>         0.5430
      7 N1          2.6786   -1.2333   -2.2998 N.am      1 <0>        -0.5969
      8 C7          2.0256   -0.7886   -1.1922 C.2       1 <0>         0.1629
      9 C8          2.7795   -0.6319    0.1033 C.3       1 <0>        -0.1312
     10 O1          2.6295   -1.7728   -4.4576 O.2       1 <0>        -0.5314
     11 S1         -0.2084   -1.2527   -5.0824 S.3       1 <0>         0.0040
     12 C9         -1.9059   -0.7467   -4.6913 C.3       1 <0>        -0.0496
     13 C10        -2.7607   -0.8580   -5.9274 C.2       1 <0>         0.2731
     14 N2         -3.4270   -1.9171   -6.2765 N.2       1 <0>        -0.4389
     15 C11        -4.0820   -1.6590   -7.4408 C.ar      1 <0>         0.0405
     16 C12        -4.9286   -2.4094   -8.2607 C.ar      1 <0>         0.0242
     17 C13        -5.4456   -1.8460   -9.4069 C.ar      1 <0>        -0.0974
     18 C14        -5.1303   -0.5398   -9.7512 C.ar      1 <0>        -0.0669
     19 C15        -4.2951    0.2128   -8.9509 C.ar      1 <0>        -0.0101
     20 C16        -3.7661   -0.3386   -7.7923 C.ar      1 <0>         0.0344
     21 O2         -2.9473    0.1249   -6.8224 O.3       1 <0>        -0.1895
     22 Cl1        -3.9067    1.8461   -9.3927 Cl        1 <0>        -0.0363
     23 Cl2        -5.3272   -4.0451   -7.8373 Cl        1 <0>        -0.0287
     24 H1          1.0039    1.9031    0.0027 H         1 <0>         0.0559
     25 H2         -0.5459    1.8868   -0.8726 H         1 <0>         0.0557
     26 H3         -0.5289    1.8773    0.9072 H         1 <0>         0.0611
     27 H4          0.5293   -0.3651    0.8851 H         1 <0>         0.0780
     28 H5         -1.0205   -0.3814    0.0098 H         1 <0>         0.0758
     29 H6         -1.0542   -0.3863   -2.4831 H         1 <0>         0.1347
     30 H7          2.7328   -1.5643    0.6659 H         1 <0>         0.0928
     31 H8          3.8202   -0.3875   -0.1093 H         1 <0>         0.0796
     32 H9          2.3307    0.1695    0.6902 H         1 <0>         0.0980
     33 H10         3.6235   -1.4460   -2.2462 H         1 <0>         0.4198
     34 H11        -2.3077   -1.3945   -3.9121 H         1 <0>         0.1383
     35 H12        -1.9059    0.2856   -4.3413 H         1 <0>         0.1263
     36 H13        -6.1002   -2.4251  -10.0414 H         1 <0>         0.1619
     37 H14        -5.5412   -0.1088  -10.6522 H         1 <0>         0.1647
@<TRIPOS>BOND
     1    1    2 1
     2    1   24 1
     3    1   25 1
     4    1   26 1
     5    2   27 1
     6    2   28 1
     7    2    3 1
     8    3    4 1
     9    3    8 2
    10    4    5 2
    11    4   29 1
    12    5    6 1
    13    5   11 1
    14    6    7 am
    15    6   10 2
    16    7   33 1
    17    7    8 1
    18    8    9 1
    19    9   30 1
    20    9   31 1
    21    9   32 1
    22   11   12 1
    23   12   13 1
    24   12   34 1
    25   12   35 1
    26   13   21 1
    27   13   14 2
    28   14   15 1
    29   15   20 ar
    30   15   16 ar
    31   16   17 ar
    32   16   23 1
    33   17   18 ar
    34   17   36 1
    35   18   19 ar
    36   18   37 1
    37   19   20 ar
    38   19   22 1
    39   20   21 1
@<TRIPOS>MOLECULE
CHEMBL190170
   44    46     0     0     0
SMALL
USER_CHARGES

@<TRIPOS>ATOM
      1 C1          0.3832    1.3541   -0.1394 C.3       1 <0>        -0.1488
      2 C2          0.3030   -0.1714   -0.0541 C.3       1 <0>        -0.0290
      3 C3          1.1827   -0.6648    1.0964 C.3       1 <0>        -0.1507
      4 C4         -1.1248   -0.5864    0.1916 C.2       1 <0>        -0.1907
      5 C5         -1.7682   -1.3820   -0.7133 C.2       1 <0>         0.1919
      6 C6         -3.1596   -1.7665   -0.4397 C.ar      1 <0>        -0.1367
      7 C7         -3.8725   -2.5785   -1.3253 C.ar      1 <0>        -0.0483
      8 C8         -5.1755   -2.9198   -1.0369 C.ar      1 <0>        -0.0656
      9 C9         -5.7808   -2.4616    0.1264 C.ar      1 <0>        -0.0535
     10 C10        -5.0900   -1.6602    1.0090 C.ar      1 <0>        -0.1473
     11 C11        -3.7734   -1.3036    0.7372 C.ar      1 <0>         0.1976
     12 N1         -3.0619   -0.5025    1.6076 N.am      1 <0>        -0.6327
     13 C12        -1.7879   -0.1592    1.3524 C.2       1 <0>         0.5512
     14 O1         -1.1928    0.5465    2.1496 O.2       1 <0>        -0.5188
     15 Cl1        -6.0665   -3.9280   -2.1338 Cl        1 <0>        -0.0570
     16 O2         -1.1398   -1.8051   -1.8344 O.3       1 <0>        -0.3110
     17 C13        -0.8845   -3.2068   -1.9452 C.3       1 <0>         0.0905
     18 C14         0.4575   -3.5343   -1.2874 C.3       1 <0>        -0.1432
     19 C15         0.7309   -5.0350   -1.4060 C.3       1 <0>        -0.1172
     20 C16         0.7773   -5.4297   -2.8835 C.3       1 <0>        -0.1246
     21 C17        -0.5647   -5.1022   -3.5413 C.3       1 <0>        -0.1170
     22 C18        -0.8381   -3.6015   -3.4227 C.3       1 <0>        -0.1177
     23 H1          1.4157    1.6542   -0.3185 H         1 <0>         0.0587
     24 H2         -0.2446    1.7057   -0.9582 H         1 <0>         0.0500
     25 H3          0.0357    1.7892    0.7976 H         1 <0>         0.0712
     26 H4          0.6518   -0.6066   -0.9906 H         1 <0>         0.0877
     27 H5          2.2154   -0.3647    0.9187 H         1 <0>         0.0589
     28 H6          0.8339   -0.2297    2.0329 H         1 <0>         0.0734
     29 H7          1.1255   -1.7516    1.1572 H         1 <0>         0.0478
     30 H8         -3.4049   -2.9361   -2.2307 H         1 <0>         0.1456
     31 H9         -6.8031   -2.7360    0.3410 H         1 <0>         0.1464
     32 H10        -5.5703   -1.3091    1.9104 H         1 <0>         0.1477
     33 H11        -1.6789   -3.7614   -1.4458 H         1 <0>         0.0707
     34 H12         1.2519   -2.9796   -1.7869 H         1 <0>         0.0773
     35 H13         0.4244   -3.2531   -0.2348 H         1 <0>         0.0682
     36 H14         1.6869   -5.2683   -0.9374 H         1 <0>         0.0701
     37 H15        -0.0635   -5.5896   -0.9066 H         1 <0>         0.0632
     38 H16         1.5717   -4.8750   -3.3830 H         1 <0>         0.0663
     39 H17         0.9721   -6.4988   -2.9680 H         1 <0>         0.0670
     40 H18        -0.5316   -5.3834   -4.5939 H         1 <0>         0.0735
     41 H19        -1.3591   -5.6568   -3.0419 H         1 <0>         0.0652
     42 H20        -1.7941   -3.3682   -3.8913 H         1 <0>         0.0724
     43 H21        -0.0437   -3.0469   -3.9221 H         1 <0>         0.0782
     44 H22        -3.4879   -0.1845    2.4190 H         1 <0>         0.4188
@<TRIPOS>BOND
     1    1    2 1
     2    1   23 1
     3    1   24 1
     4    1   25 1
     5    2    3 1
     6    2    4 1
     7    2   26 1
     8    3   27 1
     9    3   28 1
    10    3   29 1
    11    4   13 1
    12    4    5 2
    13    5    6 1
    14    5   16 1
    15    6   11 ar
    16    6    7 ar
    17    7    8 ar
    18    7   30 1
    19    8    9 ar
    20    8   15 1
    21    9   10 ar
    22    9   31 1
    23   10   11 ar
    24   10   32 1
    25   11   12 1
    26   12   13 am
    27   12   44 1
    28   13   14 2
    29   16   17 1
    30   17   22 1
    31   17   18 1
    32   17   33 1
    33   18   19 1
    34   18   34 1
    35   18   35 1
    36   19   20 1
    37   19   36 1
    38   19   37 1
    39   20   21 1
    40   20   38 1
    41   20   39 1
    42   21   22 1
    43   21   40 1
    44   21   41 1
    45   22   42 1
    46   22   43 1
@<TRIPOS>MOLECULE
CHEMBL124494
   32    34     0     0     0
SMALL
USER_CHARGES

@<TRIPOS>ATOM
      1 C1         -0.0164    1.3567    0.0095 C.ar      1 <0>        -0.1120
      2 C2          1.1686    2.0905    0.0021 C.ar      1 <0>        -0.1165
      3 C3          2.3785    1.4675   -0.0131 C.ar      1 <0>        -0.1027
      4 C4          2.4375    0.0634   -0.0211 C.ar      1 <0>        -0.0533
      5 C5          3.6681   -0.6153   -0.0364 C.ar      1 <0>        -0.0787
      6 C6          3.6865   -1.9761   -0.0434 C.ar      1 <0>        -0.0774
      7 C7          2.5015   -2.7098   -0.0357 C.ar      1 <0>        -0.0998
      8 C8          1.2917   -2.0868   -0.0209 C.ar      1 <0>        -0.1028
      9 C9          1.2327   -0.6827   -0.0133 C.ar      1 <0>        -0.0459
     10 C10         0.0021   -0.0041    0.0020 C.ar      1 <0>        -0.1081
     11 C11         5.0079   -2.7004   -0.0602 C.3       1 <0>        -0.0681
     12 S1          5.5551   -2.9996    1.6432 S.3       1 <0>         0.0249
     13 C12         7.0914   -3.8418    1.4556 C.ar      1 <0>         0.3594
     14 N1          7.7604   -4.2143    2.5374 N.ar      1 <0>        -0.5588
     15 C13         8.9218   -4.8516    2.4297 C.ar      1 <0>         0.4683
     16 C14         9.4299   -5.1248    1.1585 C.ar      1 <0>        -0.2871
     17 C15         8.7007   -4.7192    0.0555 C.ar      1 <0>         0.2655
     18 N2          7.5465   -4.0918    0.2363 N.ar      1 <0>        -0.5649
     19 Cl1         9.2868   -5.0336   -1.5481 Cl        1 <0>        -0.0094
     20 N3          9.6184   -5.2390    3.5630 N.pl3     1 <0>        -0.8255
     21 H1         -0.9633    1.8757    0.0259 H         1 <0>         0.1243
     22 H2          1.1260    3.1696    0.0083 H         1 <0>         0.1245
     23 H3          3.2884    2.0491   -0.0194 H         1 <0>         0.1285
     24 H4          4.5943   -0.0599   -0.0428 H         1 <0>         0.1316
     25 H5          2.5441   -3.7890   -0.0419 H         1 <0>         0.1275
     26 H6          0.3816   -2.6684   -0.0154 H         1 <0>         0.1311
     27 H7         -0.9241   -0.5595    0.0082 H         1 <0>         0.1283
     28 H8          4.8935   -3.6529   -0.5777 H         1 <0>         0.1066
     29 H9          5.7491   -2.0921   -0.5784 H         1 <0>         0.1059
     30 H10        10.3711   -5.6407    1.0390 H         1 <0>         0.1544
     31 H11         9.2592   -5.0454    4.4429 H         1 <0>         0.4133
     32 H12        10.4654   -5.7038    3.4764 H         1 <0>         0.4166
@<TRIPOS>BOND
     1    1   10 ar
     2    1    2 ar
     3    1   21 1
     4    2    3 ar
     5    2   22 1
     6    3    4 ar
     7    3   23 1
     8    4    9 ar
     9    4    5 ar
    10    5    6 ar
    11    5   24 1
    12    6    7 ar
    13    6   11 1
    14    7    8 ar
    15    7   25 1
    16    8    9 ar
    17    8   26 1
    18    9   10 ar
    19   10   27 1
    20   11   12 1
    21   11   28 1
    22   11   29 1
    23   12   13 1
    24   13   18 ar
    25   13   14 ar
    26   14   15 ar
    27   15   16 ar
    28   15   20 1
    29   16   17 ar
    30   16   30 1
    31   17   18 ar
    32   17   19 1
    33   20   31 1
    34   20   32 1
@<TRIPOS>MOLECULE
CHEMBL339067
   29    31     0     0     0
SMALL
USER_CHARGES

@<TRIPOS>ATOM
      1 C1         -0.0167    1.3808    0.0096 C.ar      1 <0>        -0.0689
      2 C2          1.1707    2.0893    0.0021 C.ar      1 <0>        -0.0622
      3 C3          2.3798    1.4178   -0.0135 C.ar      1 <0>        -0.0099
      4 C4          2.4056    0.0343   -0.0211 C.ar      1 <0>        -0.0925
      5 C5          1.2196   -0.6809   -0.0131 C.ar      1 <0>         0.0567
      6 C6          0.0021   -0.0041    0.0020 C.ar      1 <0>         0.0408
      7 O1         -1.0076   -0.9230    0.0066 O.3       1 <0>        -0.3017
      8 C7         -0.4041   -2.1594   -0.4179 C.3       1 <0>         0.2122
      9 O2          0.9723   -2.0233   -0.0182 O.3       1 <0>        -0.3013
     10 Cl1         3.8676    2.3123   -0.0241 Cl        1 <0>        -0.0365
     11 C8          1.1474    3.5961    0.0104 C.3       1 <0>        -0.0723
     12 S1          1.1543    4.1916    1.7239 S.3       1 <0>         0.0356
     13 C9          1.1255    5.9462    1.5655 C.ar      1 <0>         0.3606
     14 N1          1.1297    6.6938    2.6598 N.ar      1 <0>        -0.5581
     15 C10         1.1089    8.0201    2.5742 C.ar      1 <0>         0.4689
     16 C11         1.0825    8.6177    1.3129 C.ar      1 <0>        -0.2865
     17 C12         1.0790    7.8017    0.1962 C.ar      1 <0>         0.2660
     18 N2          1.1057    6.4854    0.3551 N.ar      1 <0>        -0.5644
     19 Cl2         1.0466    8.4930   -1.3959 Cl        1 <0>        -0.0088
     20 N3          1.1129    8.7983    3.7205 N.pl3     1 <0>        -0.8253
     21 H1         -0.9594    1.9076    0.0260 H         1 <0>         0.1513
     22 H2          3.3509   -0.4879   -0.0336 H         1 <0>         0.1520
     23 H3         -0.8682   -3.0058    0.0884 H         1 <0>         0.1379
     24 H4         -0.4793   -2.2707   -1.4996 H         1 <0>         0.0906
     25 H5          2.0267    3.9760   -0.5098 H         1 <0>         0.1166
     26 H6          0.2470    3.9483   -0.4930 H         1 <0>         0.1144
     27 H7          1.0648    9.6928    1.2113 H         1 <0>         0.1545
     28 H8          1.1311    8.3759    4.5934 H         1 <0>         0.4134
     29 H9          1.0976    9.7657    3.6500 H         1 <0>         0.4167
@<TRIPOS>BOND
     1    1    6 ar
     2    1    2 ar
     3    1   21 1
     4    2    3 ar
     5    2   11 1
     6    3    4 ar
     7    3   10 1
     8    4    5 ar
     9    4   22 1
    10    5    9 1
    11    5    6 ar
    12    6    7 1
    13    7    8 1
    14    8    9 1
    15    8   23 1
    16    8   24 1
    17   11   12 1
    18   11   25 1
    19   11   26 1
    20   12   13 1
    21   13   18 ar
    22   13   14 ar
    23   14   15 ar
    24   15   16 ar
    25   15   20 1
    26   16   17 ar
    27   16   27 1
    28   17   18 ar
    29   17   19 1
    30   20   28 1
    31   20   29 1
@<TRIPOS>MOLECULE
CHEMBL344289
   40    43     0     0     0
SMALL
USER_CHARGES

@<TRIPOS>ATOM
      1 C1         -0.0187    1.5258    0.0104 C.3       1 <0>        -0.1710
      2 C2          0.0021   -0.0041    0.0020 C.3       1 <0>         0.1378
      3 N1          0.6878   -0.4765   -1.2033 N.pl3     1 <0>        -0.5786
      4 C3         -0.0234   -0.7078   -2.3686 C.ar      1 <0>         0.4167
      5 C4          0.3076   -0.0048   -3.5386 C.ar      1 <0>        -0.2017
      6 C5         -0.3682   -0.3144   -4.7241 C.ar      1 <0>        -0.0012
      7 C6         -1.3670   -1.2720   -4.6821 C.ar      1 <0>        -0.1920
      8 C7         -1.6674   -1.8890   -3.4816 C.ar      1 <0>         0.1506
      9 N2         -1.0032   -1.5987   -2.3798 N.ar      1 <0>        -0.5001
     10 C8          1.3098    1.0642   -3.5227 C.2       1 <0>         0.5766
     11 O1          1.0827    2.0465   -4.2023 O.2       1 <0>        -0.5252
     12 N3          2.4411    1.0556   -2.8332 N.am      1 <0>        -0.5375
     13 C9          2.9147    0.0270   -2.0203 C.ar      1 <0>         0.0854
     14 C10         2.0650   -0.6930   -1.1922 C.ar      1 <0>         0.3701
     15 N4          2.5567   -1.6176   -0.3786 N.ar      1 <0>        -0.4674
     16 C11         3.8506   -1.9121   -0.3533 C.ar      1 <0>         0.2192
     17 C12         4.7452   -1.2522   -1.1899 C.ar      1 <0>        -0.1513
     18 C13         4.2738   -0.2756   -2.0320 C.ar      1 <0>        -0.0746
     19 C14         4.3478   -2.9548    0.5765 C.2       1 <0>        -0.1524
     20 C15         3.5445   -3.8217    1.4465 C.2       1 <0>        -0.1780
     21 C16         4.4197   -4.6021    2.1023 C.2       1 <0>        -0.0386
     22 O2          5.6639   -4.2878    1.7111 O.3       1 <0>        -0.1760
     23 C17         5.6412   -3.3094    0.7950 C.2       1 <0>         0.0030
     24 C18         3.2817    2.2510   -2.9363 C.3       1 <0>         0.0585
     25 H1          1.0039    1.9031    0.0027 H         1 <0>         0.0540
     26 H2         -0.5459    1.8868   -0.8726 H         1 <0>         0.0541
     27 H3         -0.5289    1.8773    0.9072 H         1 <0>         0.0724
     28 H4          0.5293   -0.3651    0.8851 H         1 <0>         0.0833
     29 H5         -1.0205   -0.3814    0.0098 H         1 <0>         0.0838
     30 H6         -0.1168    0.1822   -5.6497 H         1 <0>         0.1481
     31 H7         -1.9074   -1.5347   -5.5795 H         1 <0>         0.1489
     32 H8         -2.4601   -2.6216   -3.4456 H         1 <0>         0.1680
     33 H9          5.7947   -1.5068   -1.1786 H         1 <0>         0.1462
     34 H10         4.9497    0.2525   -2.6882 H         1 <0>         0.1492
     35 H11         2.4687   -3.8303    1.5406 H         1 <0>         0.1567
     36 H12         4.1630   -5.3599    2.8278 H         1 <0>         0.2069
     37 H13         6.5049   -2.8745    0.3142 H         1 <0>         0.2091
     38 H14         2.8042    2.9752   -3.5962 H         1 <0>         0.1062
     39 H15         3.4110    2.6906   -1.9473 H         1 <0>         0.0699
     40 H16         4.2555    1.9765   -3.3419 H         1 <0>         0.0708
@<TRIPOS>BOND
     1    1    2 1
     2    1   25 1
     3    1   26 1
     4    1   27 1
     5    2    3 1
     6    2   28 1
     7    2   29 1
     8    3   14 1
     9    3    4 1
    10    4    9 ar
    11    4    5 ar
    12    5    6 ar
    13    5   10 1
    14    6    7 ar
    15    6   30 1
    16    7    8 ar
    17    7   31 1
    18    8    9 ar
    19    8   32 1
    20   10   11 2
    21   10   12 am
    22   12   13 1
    23   12   24 1
    24   13   18 ar
    25   13   14 ar
    26   14   15 ar
    27   15   16 ar
    28   16   17 ar
    29   16   19 1
    30   17   18 ar
    31   17   33 1
    32   18   34 1
    33   19   23 2
    34   19   20 1
    35   20   21 2
    36   20   35 1
    37   21   22 1
    38   21   36 1
    39   22   23 1
    40   23   37 1
    41   24   38 1
    42   24   39 1
    43   24   40 1
@<TRIPOS>MOLECULE
CHEMBL320282
   41    43     0     0     0
SMALL
USER_CHARGES

@<TRIPOS>ATOM
      1 C1         -0.0662    1.3087    0.0562 C.ar      1 <0>        -0.1104
      2 C2          1.1088    2.0366    0.0370 C.ar      1 <0>        -0.1220
      3 C3          2.3265    1.3828    0.0111 C.ar      1 <0>        -0.0957
      4 C4          2.3692    0.0011    0.0049 C.ar      1 <0>        -0.0917
      5 C5          1.1942   -0.7268    0.0250 C.ar      1 <0>        -0.0961
      6 C6         -0.0235   -0.0730    0.0494 C.ar      1 <0>        -0.1229
      7 C7          3.6967   -0.7116   -0.0244 C.3       1 <0>         0.0735
      8 O1          4.1431   -0.9421    1.3134 O.3       1 <0>        -0.3382
      9 C8          5.3257   -1.7394    1.4022 C.3       1 <0>         0.2928
     10 C9          5.1235   -3.0004    0.6704 C.1       1 <0>        -0.2228
     11 C10         4.9622   -4.0062    0.0867 C.1       1 <0>        -0.0666
     12 C11         4.7600   -5.2672   -0.6452 C.3       1 <0>        -0.0614
     13 C12         4.6780   -6.5554    0.1763 C.3       1 <0>        -0.1604
     14 C13         5.9201   -6.2644   -0.6684 C.3       1 <0>        -0.1584
     15 C14         5.6213   -2.0400    2.8490 C.2       1 <0>        -0.2408
     16 C15         4.8049   -1.5641    3.8326 C.2       1 <0>         0.0456
     17 C16         5.1010   -1.8580    5.1710 C.2       1 <0>        -0.2400
     18 C17         6.1872   -2.6065    5.4741 C.2       1 <0>         0.1535
     19 N1          6.9989   -3.0790    4.4938 N.am      1 <0>        -0.6051
     20 C18         6.7378   -2.8187    3.1987 C.2       1 <0>         0.5222
     21 O2          7.4739   -3.2551    2.3283 O.2       1 <0>        -0.5181
     22 C19         6.5020   -0.9769    0.7891 C.3       1 <0>         0.4325
     23 F1          6.7604    0.1700    1.5475 F         1 <0>        -0.1725
     24 F2          7.6359   -1.7963    0.7817 F         1 <0>        -0.1448
     25 F3          6.1853   -0.6071   -0.5224 F         1 <0>        -0.1793
     26 H1         -1.0175    1.8195    0.0809 H         1 <0>         0.1242
     27 H2          1.0755    3.1161    0.0419 H         1 <0>         0.1257
     28 H3          3.2445    1.9515   -0.0046 H         1 <0>         0.1246
     29 H4          1.2275   -1.8062    0.0197 H         1 <0>         0.1219
     30 H5         -0.9416   -0.6417    0.0647 H         1 <0>         0.1247
     31 H6          3.5856   -1.6656   -0.5398 H         1 <0>         0.0719
     32 H7          4.4274   -0.0973   -0.5505 H         1 <0>         0.0892
     33 H8          4.1376   -5.1984   -1.5374 H         1 <0>         0.1343
     34 H9          4.7739   -6.4691    1.2586 H         1 <0>         0.0988
     35 H10         4.0015   -7.3344   -0.1754 H         1 <0>         0.1084
     36 H11         6.0608   -6.8519   -1.5757 H         1 <0>         0.1082
     37 H12         6.8331   -5.9867   -0.1417 H         1 <0>         0.0976
     38 H13         3.9401   -0.9671    3.5831 H         1 <0>         0.1504
     39 H14         4.4631   -1.4871    5.9596 H         1 <0>         0.1546
     40 H15         6.4107   -2.8300    6.5068 H         1 <0>         0.1716
     41 H16         7.7736   -3.6134    4.7288 H         1 <0>         0.4211
@<TRIPOS>BOND
     1    1    6 ar
     2    1    2 ar
     3    1   26 1
     4    2    3 ar
     5    2   27 1
     6    3    4 ar
     7    3   28 1
     8    4    5 ar
     9    4    7 1
    10    5    6 ar
    11    5   29 1
    12    6   30 1
    13    7    8 1
    14    7   31 1
    15    7   32 1
    16    8    9 1
    17    9   10 1
    18    9   22 1
    19    9   15 1
    20   10   11 3
    21   11   12 1
    22   12   14 1
    23   12   13 1
    24   12   33 1
    25   13   14 1
    26   13   34 1
    27   13   35 1
    28   14   36 1
    29   14   37 1
    30   15   16 2
    31   15   20 1
    32   16   17 1
    33   16   38 1
    34   17   18 2
    35   17   39 1
    36   18   19 1
    37   18   40 1
    38   19   20 am
    39   19   41 1
    40   20   21 2
    41   22   23 1
    42   22   24 1
    43   22   25 1
@<TRIPOS>MOLECULE
CHEMBL320282__1
   41    43     0     0     0
SMALL
USER_CHARGES

@<TRIPOS>ATOM
      1 C1          0.5146    2.1565    0.0366 C.ar      1 <0>        -0.1100
      2 C2          1.7966    2.6548    0.1748 C.ar      1 <0>        -0.1229
      3 C3          2.8785    1.7946    0.1526 C.ar      1 <0>        -0.0957
      4 C4          2.6784    0.4362   -0.0073 C.ar      1 <0>        -0.0921
      5 C5          1.3964   -0.0621   -0.1447 C.ar      1 <0>        -0.0954
      6 C6          0.3145    0.7982   -0.1239 C.ar      1 <0>        -0.1221
      7 C7          3.8580   -0.5014   -0.0325 C.3       1 <0>         0.0814
      8 O1          4.1443   -0.9424    1.2962 O.3       1 <0>        -0.3375
      9 C8          5.3257   -1.7394    1.4022 C.3       1 <0>         0.2928
     10 C9          6.4635   -1.0102    0.8185 C.1       1 <0>        -0.2234
     11 C10         7.3709   -0.4287    0.3530 C.1       1 <0>        -0.0665
     12 C11         8.5086    0.3004   -0.2307 C.3       1 <0>        -0.0641
     13 C12         9.1060   -0.2452   -1.5293 C.3       1 <0>        -0.1596
     14 C13         9.8738   -0.3901   -0.2139 C.3       1 <0>        -0.1588
     15 C14         5.6069   -2.0302    2.8539 C.2       1 <0>        -0.2415
     16 C15         4.7811   -1.5472    3.8261 C.2       1 <0>         0.0456
     17 C16         5.0638   -1.8319    5.1693 C.2       1 <0>        -0.2401
     18 C17         6.1467   -2.5787    5.4883 C.2       1 <0>         0.1536
     19 N1          6.9678   -3.0582    4.5193 N.am      1 <0>        -0.6051
     20 C18         6.7196   -2.8067    3.2199 C.2       1 <0>         0.5228
     21 O2          7.4641   -3.2494    2.3598 O.2       1 <0>        -0.5178
     22 C19         5.1225   -3.0552    0.6485 C.3       1 <0>         0.4302
     23 F1          4.9657   -2.7915   -0.7164 F         1 <0>        -0.1806
     24 F2          6.2372   -3.8788    0.8393 F         1 <0>        -0.1432
     25 F3          3.9789   -3.6987    1.1336 F         1 <0>        -0.1729
     26 H1         -0.3310    2.8281    0.0584 H         1 <0>         0.1244
     27 H2          1.9530    3.7160    0.2998 H         1 <0>         0.1250
     28 H3          3.8802    2.1839    0.2599 H         1 <0>         0.1225
     29 H4          1.2400   -1.1233   -0.2700 H         1 <0>         0.1246
     30 H5         -0.6871    0.4089   -0.2316 H         1 <0>         0.1258
     31 H6          3.6244   -1.3624   -0.6587 H         1 <0>         0.0796
     32 H7          4.7263    0.0179   -0.4380 H         1 <0>         0.0729
     33 H8          8.4902    1.3825   -0.1004 H         1 <0>         0.1327
     34 H9          8.6566   -1.1440   -1.9514 H         1 <0>         0.1001
     35 H10         9.4807    0.4780   -2.2537 H         1 <0>         0.1082
     36 H11        10.7536    0.2377   -0.0728 H         1 <0>         0.1072
     37 H12         9.9295   -1.3843    0.2295 H         1 <0>         0.1020
     38 H13         3.9190   -0.9517    3.5639 H         1 <0>         0.1505
     39 H14         4.4183   -1.4554    5.9491 H         1 <0>         0.1546
     40 H15         6.3600   -2.7951    6.5247 H         1 <0>         0.1716
     41 H16         7.7399   -3.5912    4.7656 H         1 <0>         0.4210
@<TRIPOS>BOND
     1    1    6 ar
     2    1    2 ar
     3    1   26 1
     4    2    3 ar
     5    2   27 1
     6    3    4 ar
     7    3   28 1
     8    4    5 ar
     9    4    7 1
    10    5    6 ar
    11    5   29 1
    12    6   30 1
    13    7    8 1
    14    7   31 1
    15    7   32 1
    16    8    9 1
    17    9   10 1
    18    9   22 1
    19    9   15 1
    20   10   11 3
    21   11   12 1
    22   12   14 1
    23   12   13 1
    24   12   33 1
    25   13   14 1
    26   13   34 1
    27   13   35 1
    28   14   36 1
    29   14   37 1
    30   15   16 2
    31   15   20 1
    32   16   17 1
    33   16   38 1
    34   17   18 2
    35   17   39 1
    36   18   19 1
    37   18   40 1
    38   19   20 am
    39   19   41 1
    40   20   21 2
    41   22   23 1
    42   22   24 1
    43   22   25 1
@<TRIPOS>MOLECULE
CHEMBL310306
   36    39     0     0     0
SMALL
USER_CHARGES

@<TRIPOS>ATOM
      1 C1         -0.0167    1.3829    0.0096 C.ar      1 <0>        -0.2205
      2 C2          1.1921    2.0633    0.0018 C.ar      1 <0>         0.1540
      3 N1          2.3199    1.3746   -0.0127 N.ar      1 <0>        -0.4985
      4 C3          2.3039    0.0472   -0.0197 C.ar      1 <0>         0.4234
      5 N2          1.1641   -0.6334   -0.0129 N.ar      1 <0>        -0.5005
      6 C4          0.0021   -0.0041    0.0020 C.ar      1 <0>         0.1540
      7 C5          3.5450   -0.6672   -0.0354 C.1       1 <0>        -0.0823
      8 C6          4.5624   -1.2528   -0.0482 C.1       1 <0>        -0.1101
      9 C7          5.8381   -1.9871   -0.0644 C.3       1 <0>         0.3666
     10 C8          5.5248   -3.4655   -0.0693 C.ar      1 <0>        -0.1184
     11 C9          4.7603   -4.0311   -1.0636 C.ar      1 <0>        -0.0466
     12 C10         4.4938   -5.3906   -1.0358 C.ar      1 <0>        -0.0621
     13 C11         4.9956   -6.1735   -0.0107 C.ar      1 <0>        -0.0608
     14 C12         5.7629   -5.6068    0.9883 C.ar      1 <0>        -0.1442
     15 C13         6.0332   -4.2451    0.9640 C.ar      1 <0>         0.1868
     16 N3          6.8073   -3.6543    1.9639 N.am      1 <0>        -0.6591
     17 C14         7.0957   -2.3467    1.9850 C.2       1 <0>         0.7148
     18 O1          7.7785   -1.9184    2.8954 O.2       1 <0>        -0.5656
     19 N4          6.6653   -1.4849    1.0459 N.am      1 <0>        -0.7089
     20 Cl1         3.5300   -6.1118   -2.2866 Cl        1 <0>        -0.0574
     21 C15         6.5537   -1.6527   -1.3747 C.3       1 <0>        -0.1732
     22 C16         8.0063   -1.1807   -1.2858 C.3       1 <0>        -0.1626
     23 C17         6.8987   -0.1853   -1.6367 C.3       1 <0>        -0.1682
     24 H1         -0.9526    1.9216    0.0259 H         1 <0>         0.1561
     25 H2          1.2113    3.1431    0.0070 H         1 <0>         0.1779
     26 H3         -0.9220   -0.5631    0.0082 H         1 <0>         0.1774
     27 H4          4.3693   -3.4180   -1.8621 H         1 <0>         0.1455
     28 H5          4.7859   -7.2327    0.0084 H         1 <0>         0.1450
     29 H6          6.1517   -6.2215    1.7866 H         1 <0>         0.1456
     30 H7          7.1521   -4.2161    2.6755 H         1 <0>         0.4290
     31 H8          6.8972   -0.5445    1.0992 H         1 <0>         0.4323
     32 H9          6.2746   -2.2650   -2.2322 H         1 <0>         0.1265
     33 H10         8.4522   -1.1084   -0.2938 H         1 <0>         0.1016
     34 H11         8.6834   -1.4826   -2.0849 H         1 <0>         0.1033
     35 H12         6.8470    0.1677   -2.6667 H         1 <0>         0.1048
     36 H13         6.6158    0.5418   -0.8756 H         1 <0>         0.0944
@<TRIPOS>BOND
     1    1    6 ar
     2    1    2 ar
     3    1   24 1
     4    2    3 ar
     5    2   25 1
     6    3    4 ar
     7    4    5 ar
     8    4    7 1
     9    5    6 ar
    10    6   26 1
    11    7    8 3
    12    8    9 1
    13    9   19 1
    14    9   10 1
    15    9   21 1
    16   10   15 ar
    17   10   11 ar
    18   11   12 ar
    19   11   27 1
    20   12   13 ar
    21   12   20 1
    22   13   14 ar
    23   13   28 1
    24   14   15 ar
    25   14   29 1
    26   15   16 1
    27   16   17 am
    28   16   30 1
    29   17   18 2
    30   17   19 am
    31   19   31 1
    32   21   23 1
    33   21   22 1
    34   21   32 1
    35   22   23 1
    36   22   33 1
    37   22   34 1
    38   23   35 1
    39   23   36 1
@<TRIPOS>MOLECULE
CHEMBL310306__1
   36    39     0     0     0
SMALL
USER_CHARGES

@<TRIPOS>ATOM
      1 C1         -0.0167    1.3829    0.0096 C.ar      1 <0>        -0.2194
      2 C2          1.1921    2.0633    0.0018 C.ar      1 <0>         0.1540
      3 N1          2.3199    1.3746   -0.0127 N.ar      1 <0>        -0.4994
      4 C3          2.3039    0.0472   -0.0197 C.ar      1 <0>         0.4222
      5 N2          1.1641   -0.6334   -0.0129 N.ar      1 <0>        -0.4983
      6 C4          0.0021   -0.0041    0.0020 C.ar      1 <0>         0.1539
      7 C5          3.5450   -0.6672   -0.0354 C.1       1 <0>        -0.0847
      8 C6          4.5624   -1.2528   -0.0482 C.1       1 <0>        -0.1103
      9 C7          5.8381   -1.9871   -0.0644 C.3       1 <0>         0.3653
     10 C8          5.5248   -3.4655   -0.0693 C.ar      1 <0>        -0.1207
     11 C9          4.7786   -4.0416    0.9328 C.ar      1 <0>        -0.0414
     12 C10         4.5108   -5.4006    0.8950 C.ar      1 <0>        -0.0637
     13 C11         4.9936   -6.1726   -0.1473 C.ar      1 <0>        -0.0601
     14 C12         5.7425   -5.5953   -1.1541 C.ar      1 <0>        -0.1453
     15 C13         6.0133   -4.2339   -1.1204 C.ar      1 <0>         0.1866
     16 N3          6.7682   -3.6323   -2.1286 N.am      1 <0>        -0.6600
     17 C14         7.0556   -2.3244   -2.1416 C.2       1 <0>         0.7138
     18 O1          7.7195   -1.8860   -3.0610 O.2       1 <0>        -0.5662
     19 N4          6.6440   -1.4729   -1.1848 N.am      1 <0>        -0.7058
     20 Cl1         3.5700   -6.1352    2.1556 Cl        1 <0>        -0.0580
     21 C15         6.5786   -1.6667    1.2356 C.3       1 <0>        -0.1729
     22 C16         5.7834   -0.9881    2.3528 C.3       1 <0>        -0.1667
     23 C17         6.8251   -0.1927    1.5634 C.3       1 <0>        -0.1668
     24 H1         -0.9526    1.9216    0.0259 H         1 <0>         0.1564
     25 H2          1.2113    3.1431    0.0070 H         1 <0>         0.1775
     26 H3         -0.9220   -0.5631    0.0082 H         1 <0>         0.1782
     27 H4          4.4035   -3.4373    1.7455 H         1 <0>         0.1451
     28 H5          4.7835   -7.2316   -0.1737 H         1 <0>         0.1449
     29 H6          6.1172   -6.2017   -1.9655 H         1 <0>         0.1456
     30 H7          7.0994   -4.1865   -2.8526 H         1 <0>         0.4288
     31 H8          6.8748   -0.5320   -1.2324 H         1 <0>         0.4325
     32 H9          7.3469   -2.3826    1.5276 H         1 <0>         0.1248
     33 H10         4.7328   -0.7698    2.1617 H         1 <0>         0.1064
     34 H11         6.0285   -1.2575    3.3801 H         1 <0>         0.1046
     35 H12         7.7555    0.0611    2.0714 H         1 <0>         0.1047
     36 H13         6.4598    0.5488    0.8529 H         1 <0>         0.0944
@<TRIPOS>BOND
     1    1    6 ar
     2    1    2 ar
     3    1   24 1
     4    2    3 ar
     5    2   25 1
     6    3    4 ar
     7    4    5 ar
     8    4    7 1
     9    5    6 ar
    10    6   26 1
    11    7    8 3
    12    8    9 1
    13    9   19 1
    14    9   10 1
    15    9   21 1
    16   10   15 ar
    17   10   11 ar
    18   11   12 ar
    19   11   27 1
    20   12   13 ar
    21   12   20 1
    22   13   14 ar
    23   13   28 1
    24   14   15 ar
    25   14   29 1
    26   15   16 1
    27   16   17 am
    28   16   30 1
    29   17   18 2
    30   17   19 am
    31   19   31 1
    32   21   23 1
    33   21   22 1
    34   21   32 1
    35   22   23 1
    36   22   33 1
    37   22   34 1
    38   23   35 1
    39   23   36 1
@<TRIPOS>MOLECULE
CHEMBL105976
   43    46     0     0     0
SMALL
USER_CHARGES

@<TRIPOS>ATOM
      1 C1         -0.0055    1.3289    0.0150 C.2       1 <0>        -0.1753
      2 C2          1.3179    1.7812    0.0042 C.2       1 <0>        -0.1094
      3 C3          2.1267    0.6650   -0.0074 C.2       1 <0>        -0.0346
      4 C4          3.5761    0.4813   -0.0217 C.2       1 <0>         0.4304
      5 N1          4.0848   -0.7290   -0.0307 N.2       1 <0>        -0.5537
      6 C5          3.2890   -1.8309   -0.0272 C.ar      1 <0>         0.1397
      7 C6          3.8659   -3.1069   -0.0370 C.ar      1 <0>        -0.0728
      8 C7          3.0611   -4.2249   -0.0331 C.ar      1 <0>        -0.0250
      9 C8          1.6797   -4.0962   -0.0198 C.ar      1 <0>        -0.0950
     10 C9          1.0960   -2.8459   -0.0100 C.ar      1 <0>        -0.1011
     11 C10         1.8912   -1.7081   -0.0133 C.ar      1 <0>         0.0721
     12 N2          1.3068   -0.4451   -0.0037 N.pl3     1 <0>        -0.3548
     13 C11         0.0166   -0.0264    0.0099 C.2       1 <0>         0.0172
     14 Cl1         3.7800   -5.8050   -0.0453 Cl        1 <0>        -0.0497
     15 O1          4.3950    1.5597   -0.0260 O.3       1 <0>        -0.2887
     16 C12         5.8013    1.3064   -0.0401 C.3       1 <0>         0.0528
     17 C13         6.5589    2.6356   -0.0430 C.3       1 <0>         0.1275
     18 N3          6.3054    3.3450    1.2135 N.pl3     1 <0>        -0.6802
     19 C14         6.8733    4.5470    1.4351 C.2       1 <0>         0.5226
     20 S1          7.8908    5.2449    0.2483 S.2       1 <0>        -0.4993
     21 N4          6.6401    5.1996    2.5911 N.pl3     1 <0>        -0.6179
     22 C15         7.3111    6.3895    2.8671 C.ar      1 <0>         0.3542
     23 C16         7.1473    7.0014    4.1051 C.ar      1 <0>        -0.1924
     24 C17         7.8190    8.1821    4.3664 C.ar      1 <0>        -0.0242
     25 C18         8.6356    8.7132    3.3758 C.ar      1 <0>        -0.1685
     26 C19         8.7517    8.0515    2.1688 C.ar      1 <0>         0.1562
     27 N5          8.1025    6.9237    1.9505 N.ar      1 <0>        -0.4031
     28 Br1         9.5778   10.3250    3.6765 Br        1 <0>        -0.0378
     29 H1         -0.8890    1.9499    0.0296 H         1 <0>         0.1587
     30 H2          1.6446    2.8107    0.0046 H         1 <0>         0.1563
     31 H3          4.9405   -3.2143   -0.0480 H         1 <0>         0.1534
     32 H4          1.0579   -4.9792   -0.0176 H         1 <0>         0.1482
     33 H5          0.0201   -2.7526   -0.0001 H         1 <0>         0.1439
     34 H6         -0.8518   -0.6685    0.0161 H         1 <0>         0.1786
     35 H7          6.0761    0.7335    0.8455 H         1 <0>         0.0826
     36 H8          6.0593    0.7391   -0.9343 H         1 <0>         0.1015
     37 H9          7.6273    2.4446   -0.1433 H         1 <0>         0.1167
     38 H10         6.2188    3.2458   -0.8797 H         1 <0>         0.1035
     39 H11         5.7289    2.9495    1.8859 H         1 <0>         0.3986
     40 H12         6.0053    4.8411    3.2309 H         1 <0>         0.4106
     41 H13         6.5040    6.5608    4.8524 H         1 <0>         0.1413
     42 H14         7.7108    8.6800    5.3187 H         1 <0>         0.1483
     43 H15         9.3852    8.4602    1.3955 H         1 <0>         0.1688
@<TRIPOS>BOND
     1    1   13 2
     2    1    2 1
     3    1   29 1
     4    2    3 2
     5    2   30 1
     6    3   12 1
     7    3    4 1
     8    4    5 2
     9    4   15 1
    10    5    6 1
    11    6   11 ar
    12    6    7 ar
    13    7    8 ar
    14    7   31 1
    15    8    9 ar
    16    8   14 1
    17    9   10 ar
    18    9   32 1
    19   10   11 ar
    20   10   33 1
    21   11   12 1
    22   12   13 1
    23   13   34 1
    24   15   16 1
    25   16   17 1
    26   16   35 1
    27   16   36 1
    28   17   18 1
    29   17   37 1
    30   17   38 1
    31   18   19 1
    32   18   39 1
    33   19   20 2
    34   19   21 1
    35   21   22 1
    36   21   40 1
    37   22   27 ar
    38   22   23 ar
    39   23   24 ar
    40   23   41 1
    41   24   25 ar
    42   24   42 1
    43   25   26 ar
    44   25   28 1
    45   26   27 ar
    46   26   43 1
@<TRIPOS>MOLECULE
CHEMBL39999
   32    33     0     0     0
SMALL
USER_CHARGES

@<TRIPOS>ATOM
      1 C1         -0.0351    1.3793   -0.0045 C.ar      1 <0>        -0.0721
      2 C2          1.1742    2.0578   -0.0099 C.ar      1 <0>        -0.1728
      3 C3          2.3519    1.3350   -0.0213 C.ar      1 <0>         0.1066
      4 N1          2.3340    0.0163   -0.0275 N.ar      1 <0>        -0.4774
      5 C4          1.2032   -0.6618   -0.0226 C.ar      1 <0>         0.1285
      6 C5         -0.0139   -0.0069   -0.0108 C.ar      1 <0>        -0.1661
      7 C6          1.2382   -2.1684   -0.0306 C.3       1 <0>        -0.0814
      8 C7          2.0685   -2.6530   -1.2209 C.3       1 <0>         0.1320
      9 N2          2.1026   -4.1175   -1.2286 N.pl3     1 <0>        -0.6819
     10 C8          2.7804   -4.7708   -2.1931 C.2       1 <0>         0.5206
     11 S1          3.6018   -3.8890   -3.4092 S.2       1 <0>        -0.4978
     12 N3          2.8118   -6.1181   -2.2002 N.pl3     1 <0>        -0.6191
     13 C9          3.4197   -6.7955   -3.2557 C.ar      1 <0>         0.3548
     14 C10         3.3553   -8.1834   -3.3115 C.ar      1 <0>        -0.1933
     15 C11         3.9629   -8.8436   -4.3645 C.ar      1 <0>        -0.0243
     16 C12         4.6173   -8.0893   -5.3303 C.ar      1 <0>        -0.1692
     17 C13         4.6417   -6.7132   -5.2114 C.ar      1 <0>         0.1561
     18 N4          4.0483   -6.1113   -4.1983 N.ar      1 <0>        -0.4030
     19 Br1         5.4663   -8.9374   -6.7918 Br        1 <0>        -0.0386
     20 H1         -0.9712    1.9178    0.0089 H         1 <0>         0.1365
     21 H2          1.1954    3.1376   -0.0056 H         1 <0>         0.1373
     22 H3          3.2979    1.8560   -0.0256 H         1 <0>         0.1593
     23 H4         -0.9368   -0.5679   -0.0065 H         1 <0>         0.1350
     24 H5          1.6877   -2.5263    0.8957 H         1 <0>         0.0906
     25 H6          0.2226   -2.5550   -0.1147 H         1 <0>         0.0865
     26 H7          1.6190   -2.2951   -2.1471 H         1 <0>         0.0880
     27 H8          3.0842   -2.2663   -1.1368 H         1 <0>         0.1021
     28 H9          1.6372   -4.6171   -0.5396 H         1 <0>         0.3955
     29 H10         2.4112   -6.6164   -1.4707 H         1 <0>         0.4098
     30 H11         2.8381   -8.7386   -2.5429 H         1 <0>         0.1412
     31 H12         3.9296   -9.9208   -4.4339 H         1 <0>         0.1481
     32 H13         5.1492   -6.1224   -5.9596 H         1 <0>         0.1685
@<TRIPOS>BOND
     1    1    6 ar
     2    1    2 ar
     3    1   20 1
     4    2    3 ar
     5    2   21 1
     6    3    4 ar
     7    3   22 1
     8    4    5 ar
     9    5    6 ar
    10    5    7 1
    11    6   23 1
    12    7    8 1
    13    7   24 1
    14    7   25 1
    15    8    9 1
    16    8   26 1
    17    8   27 1
    18    9   10 1
    19    9   28 1
    20   10   11 2
    21   10   12 1
    22   12   13 1
    23   12   29 1
    24   13   18 ar
    25   13   14 ar
    26   14   15 ar
    27   14   30 1
    28   15   16 ar
    29   15   31 1
    30   16   17 ar
    31   16   19 1
    32   17   18 ar
    33   17   32 1
@<TRIPOS>MOLECULE
CHEMBL133195
   35    37     0     0     0
SMALL
USER_CHARGES

@<TRIPOS>ATOM
      1 C1         -0.0372    1.3388    0.0095 C.ar      1 <0>        -0.0985
      2 C2          1.1381    2.0910    0.0059 C.ar      1 <0>        -0.0985
      3 C3          2.3626    1.5028   -0.0078 C.ar      1 <0>        -0.0642
      4 C4          2.4568    0.1001   -0.0181 C.ar      1 <0>         0.0272
      5 C5          1.2181   -0.6926   -0.0137 C.ar      1 <0>         0.0271
      6 C6         -0.0161   -0.0195    0.0000 C.ar      1 <0>        -0.0641
      7 N1          1.6240   -1.9521   -0.0255 N.2       1 <0>        -0.2736
      8 N2          2.9113   -1.9744   -0.0358 N.pl3     1 <0>        -0.1086
      9 N3          3.4303   -0.7961   -0.0318 N.2       1 <0>        -0.2736
     10 C7          3.7009   -3.2083   -0.0509 C.3       1 <0>         0.1237
     11 C8          3.9644   -3.6275   -1.4986 C.3       1 <0>         0.1124
     12 N4          4.7540   -4.8614   -1.5136 N.pl3     1 <0>        -0.6824
     13 C9          5.1081   -5.4206   -2.6877 C.2       1 <0>         0.5222
     14 S1          4.6351   -4.6889   -4.1614 S.2       1 <0>        -0.4859
     15 N5          5.8345   -6.5558   -2.7016 N.pl3     1 <0>        -0.6152
     16 C10         6.1083   -7.1931   -3.9104 C.ar      1 <0>         0.3521
     17 C11         6.7654   -8.4186   -3.9094 C.ar      1 <0>        -0.1906
     18 C12         7.0312   -9.0407   -5.1161 C.ar      1 <0>        -0.0240
     19 C13         6.6287   -8.4128   -6.2882 C.ar      1 <0>        -0.1672
     20 C14         5.9801   -7.1954   -6.2144 C.ar      1 <0>         0.1563
     21 N6          5.7356   -6.6288   -5.0481 N.ar      1 <0>        -0.4044
     22 Br1         6.9656   -9.2159   -7.9667 Br        1 <0>        -0.0360
     23 H1         -0.9885    1.8499    0.0248 H         1 <0>         0.1366
     24 H2          1.0726    3.1690    0.0138 H         1 <0>         0.1366
     25 H3          3.2570    2.1082   -0.0110 H         1 <0>         0.1364
     26 H4         -0.9405   -0.5780    0.0031 H         1 <0>         0.1364
     27 H5          4.6504   -3.0383    0.4567 H         1 <0>         0.1215
     28 H6          3.1511   -3.9978    0.4616 H         1 <0>         0.1215
     29 H7          3.0150   -3.7975   -2.0062 H         1 <0>         0.1030
     30 H8          4.5142   -2.8381   -2.0111 H         1 <0>         0.1029
     31 H9          5.0220   -5.2760   -0.6786 H         1 <0>         0.3988
     32 H10         6.1667   -6.9292   -1.8703 H         1 <0>         0.4113
     33 H11         7.0646   -8.8784   -2.9791 H         1 <0>         0.1422
     34 H12         7.5403   -9.9927   -5.1463 H         1 <0>         0.1492
     35 H13         5.6652   -6.7032   -7.1227 H         1 <0>         0.1693
@<TRIPOS>BOND
     1    1    6 ar
     2    1    2 ar
     3    1   23 1
     4    2    3 ar
     5    2   24 1
     6    3    4 ar
     7    3   25 1
     8    4    9 2
     9    4    5 ar
    10    5    6 ar
    11    5    7 2
    12    6   26 1
    13    7    8 1
    14    8    9 1
    15    8   10 1
    16   10   11 1
    17   10   27 1
    18   10   28 1
    19   11   12 1
    20   11   29 1
    21   11   30 1
    22   12   13 1
    23   12   31 1
    24   13   14 2
    25   13   15 1
    26   15   16 1
    27   15   32 1
    28   16   21 ar
    29   16   17 ar
    30   17   18 ar
    31   17   33 1
    32   18   19 ar
    33   18   34 1
    34   19   20 ar
    35   19   22 1
    36   20   21 ar
    37   20   35 1
@<TRIPOS>MOLECULE
CHEMBL135662
   41    43     0     0     0
SMALL
USER_CHARGES

@<TRIPOS>ATOM
      1 C1         -0.0125    1.4909    0.0362 C.3       1 <0>        -0.1194
      2 C2          0.0058   -0.0160    0.0250 C.ar      1 <0>        -0.0610
      3 C3          0.0107   -0.6685   -1.1666 C.ar      1 <0>        -0.0670
      4 C4          0.0282   -2.0742   -1.1859 C.ar      1 <0>         0.0300
      5 C5          0.0409   -2.7997    0.0932 C.ar      1 <0>         0.0299
      6 C6          0.0343   -2.0618    1.2899 C.ar      1 <0>        -0.0670
      7 C7          0.0232   -0.7042    1.2386 C.ar      1 <0>        -0.0610
      8 C8          0.0231    0.0787    2.5263 C.3       1 <0>        -0.1194
      9 N1          0.0560   -4.0790   -0.2451 N.2       1 <0>        -0.2746
     10 N2          0.0535   -4.1699   -1.5294 N.pl3     1 <0>        -0.1106
     11 N3          0.0375   -3.0210   -2.1104 N.2       1 <0>        -0.2747
     12 C9          0.0682   -5.4441   -2.2522 C.3       1 <0>         0.1245
     13 C10        -1.3690   -5.9066   -2.4997 C.3       1 <0>         0.1123
     14 N4         -1.3543   -7.1808   -3.2225 N.pl3     1 <0>        -0.6823
     15 C11        -2.5147   -7.7823   -3.5517 C.2       1 <0>         0.5222
     16 N5         -2.5011   -8.9545   -4.2167 N.pl3     1 <0>        -0.6154
     17 C12        -3.6951   -9.6305   -4.4617 C.ar      1 <0>         0.3522
     18 C13        -3.6652  -10.8889   -5.0526 C.ar      1 <0>        -0.1907
     19 C14        -4.8574  -11.5494   -5.2900 C.ar      1 <0>        -0.0240
     20 C15        -6.0443  -10.9256   -4.9265 C.ar      1 <0>        -0.1673
     21 C16        -5.9992   -9.6741   -4.3434 C.ar      1 <0>         0.1563
     22 N6         -4.8462   -9.0709   -4.1248 N.ar      1 <0>        -0.4043
     23 Br1        -7.7040  -11.7804   -5.2274 Br        1 <0>        -0.0361
     24 S1         -4.0058   -7.0573   -3.1251 S.2       1 <0>        -0.4860
     25 H1          1.0106    1.8667    0.0313 H         1 <0>         0.0757
     26 H2         -0.5373    1.8544   -0.8473 H         1 <0>         0.0707
     27 H3         -0.5241    1.8413    0.9326 H         1 <0>         0.0748
     28 H4          0.0007   -0.1118   -2.0919 H         1 <0>         0.1364
     29 H5          0.0434   -2.5702    2.2427 H         1 <0>         0.1364
     30 H6         -1.0045    0.2549    2.8443 H         1 <0>         0.0764
     31 H7          0.5495   -0.4866    3.2953 H         1 <0>         0.0703
     32 H8          0.5241    1.0341    2.3706 H         1 <0>         0.0746
     33 H9          0.5777   -5.3143   -3.2070 H         1 <0>         0.1209
     34 H10         0.5936   -6.1924   -1.6588 H         1 <0>         0.1210
     35 H11        -1.8785   -6.0364   -1.5449 H         1 <0>         0.1029
     36 H12        -1.8945   -5.1583   -3.0931 H         1 <0>         0.1027
     37 H13        -1.6605   -9.3277   -4.5247 H         1 <0>         0.4113
     38 H14        -2.7240  -11.3444   -5.3229 H         1 <0>         0.1422
     39 H15        -4.8652  -12.5275   -5.7478 H         1 <0>         0.1492
     40 H16        -6.9191   -9.1849   -4.0590 H         1 <0>         0.1693
     41 H17        -0.5095   -7.5916   -3.4642 H         1 <0>         0.3987
@<TRIPOS>BOND
     1    1    2 1
     2    1   25 1
     3    1   26 1
     4    1   27 1
     5    2    7 ar
     6    2    3 ar
     7    3    4 ar
     8    3   28 1
     9    4   11 2
    10    4    5 ar
    11    5    6 ar
    12    5    9 2
    13    6    7 ar
    14    6   29 1
    15    7    8 1
    16    8   30 1
    17    8   31 1
    18    8   32 1
    19    9   10 1
    20   10   11 1
    21   10   12 1
    22   12   13 1
    23   12   33 1
    24   12   34 1
    25   13   14 1
    26   13   35 1
    27   13   36 1
    28   14   15 1
    29   14   41 1
    30   15   16 1
    31   15   24 2
    32   16   17 1
    33   16   37 1
    34   17   22 ar
    35   17   18 ar
    36   18   19 ar
    37   18   38 1
    38   19   20 ar
    39   19   39 1
    40   20   21 ar
    41   20   23 1
    42   21   22 ar
    43   21   40 1
@<TRIPOS>MOLECULE
CHEMBL215724
   51    53     0     0     0
SMALL
USER_CHARGES

@<TRIPOS>ATOM
      1 C1         -0.0184    1.5028    0.0103 C.3       1 <0>        -0.1137
      2 C2          0.0021   -0.0041    0.0020 C.ar      1 <0>        -0.0897
      3 C3          0.0057   -0.6842   -1.1937 C.ar      1 <0>        -0.0451
      4 C4          0.0246   -2.0822   -1.2141 C.ar      1 <0>        -0.0684
      5 C5          0.0394   -2.7954   -0.0225 C.ar      1 <0>        -0.0169
      6 C6          0.0358   -2.1090    1.1901 C.ar      1 <0>        -0.1799
      7 C7          0.0230   -0.7046    1.2031 C.ar      1 <0>         0.1013
      8 O1          0.0296   -0.3185    2.4958 O.3       1 <0>        -0.0720
      9 N1          0.0527   -1.4600    3.3285 N.2       1 <0>        -0.3425
     10 C8          0.0478   -2.5372    2.5968 C.2       1 <0>         0.3132
     11 O2          0.0662   -3.8158    3.0479 O.3       1 <0>        -0.2748
     12 C9          0.0752   -4.0039    4.4644 C.3       1 <0>         0.0238
     13 C10         0.0283   -2.8042   -2.5096 C.2       1 <0>        -0.0665
     14 C11         1.0740   -2.6878   -3.3381 C.2       1 <0>        -0.1016
     15 C12         2.2470   -1.8232   -2.9540 C.3       1 <0>        -0.1019
     16 C13         3.5327   -2.6502   -3.0178 C.3       1 <0>        -0.1044
     17 C14         4.7236   -1.7723   -2.6278 C.3       1 <0>        -0.1145
     18 C15         5.9900   -2.5869   -2.6907 C.2       1 <0>         0.4573
     19 O3          5.9446   -3.7501   -3.0142 O.2       1 <0>        -0.5051
     20 O4          7.1683   -2.0201   -2.3872 O.3       1 <0>        -0.3563
     21 C16         8.3279   -2.8512   -2.4681 C.3       1 <0>         0.0326
     22 C17        -1.1250   -3.6543   -2.8873 C.ar      1 <0>        -0.0138
     23 C18        -2.3746   -3.0746   -3.1117 C.ar      1 <0>        -0.1034
     24 C19        -3.4467   -3.8633   -3.4621 C.ar      1 <0>        -0.0680
     25 C20        -3.2835   -5.2453   -3.5937 C.ar      1 <0>        -0.0274
     26 C21        -2.0315   -5.8246   -3.3692 C.ar      1 <0>        -0.0675
     27 C22        -0.9596   -5.0333   -3.0240 C.ar      1 <0>        -0.1077
     28 C23        -4.3984   -6.0670   -3.9578 C.1       1 <0>         0.2495
     29 N2         -5.2828   -6.7188   -4.2466 N.1       1 <0>        -0.4119
     30 H1          1.0042    1.8801    0.0026 H         1 <0>         0.0766
     31 H2         -0.5455    1.8639   -0.8728 H         1 <0>         0.0753
     32 H3         -0.5286    1.8543    0.9071 H         1 <0>         0.0722
     33 H4         -0.0065   -0.1345   -2.1232 H         1 <0>         0.1447
     34 H5          0.0533   -3.8752   -0.0356 H         1 <0>         0.1382
     35 H6          0.0897   -5.0703    4.6893 H         1 <0>         0.1139
     36 H7          0.9612   -3.5311    4.8881 H         1 <0>         0.0669
     37 H8         -0.8186   -3.5536    4.8964 H         1 <0>         0.0669
     38 H9          1.0767   -3.2135   -4.2815 H         1 <0>         0.1258
     39 H10         2.3208   -0.9831   -3.6445 H         1 <0>         0.0834
     40 H11         2.1058   -1.4488   -1.9401 H         1 <0>         0.0792
     41 H12         3.4590   -3.4902   -2.3272 H         1 <0>         0.0747
     42 H13         3.6739   -3.0246   -4.0317 H         1 <0>         0.0760
     43 H14         4.7973   -0.9322   -3.3184 H         1 <0>         0.1085
     44 H15         4.5824   -1.3979   -1.6139 H         1 <0>         0.1068
     45 H16         9.2103   -2.2710   -2.1983 H         1 <0>         0.1027
     46 H17         8.2215   -3.6912   -1.7816 H         1 <0>         0.0607
     47 H18         8.4364   -3.2255   -3.4861 H         1 <0>         0.0611
     48 H19        -2.5004   -2.0068   -3.0099 H         1 <0>         0.1350
     49 H20        -4.4138   -3.4146   -3.6349 H         1 <0>         0.1349
     50 H21        -1.9043   -6.8924   -3.4703 H         1 <0>         0.1353
     51 H22         0.0090   -5.4802   -2.8548 H         1 <0>         0.1366
@<TRIPOS>BOND
     1    1    2 1
     2    1   30 1
     3    1   31 1
     4    1   32 1
     5    2    7 ar
     6    2    3 ar
     7    3    4 ar
     8    3   33 1
     9    4    5 ar
    10    4   13 1
    11    5    6 ar
    12    5   34 1
    13    6   10 1
    14    6    7 ar
    15    7    8 1
    16    8    9 1
    17    9   10 2
    18   10   11 1
    19   11   12 1
    20   12   35 1
    21   12   36 1
    22   12   37 1
    23   13   14 2
    24   13   22 1
    25   14   15 1
    26   14   38 1
    27   15   16 1
    28   15   39 1
    29   15   40 1
    30   16   17 1
    31   16   41 1
    32   16   42 1
    33   17   18 1
    34   17   43 1
    35   17   44 1
    36   18   19 2
    37   18   20 1
    38   20   21 1
    39   21   45 1
    40   21   46 1
    41   21   47 1
    42   22   27 ar
    43   22   23 ar
    44   23   24 ar
    45   23   48 1
    46   24   25 ar
    47   24   49 1
    48   25   26 ar
    49   25   28 1
    50   26   27 ar
    51   26   50 1
    52   27   51 1
    53   28   29 3
@<TRIPOS>MOLECULE
CHEMBL144326
   46    49     0     0     0
SMALL
USER_CHARGES

@<TRIPOS>ATOM
      1 C1         -0.0187    1.5258    0.0104 C.3       1 <0>        -0.1754
      2 C2          0.0021   -0.0041    0.0020 C.3       1 <0>         0.1224
      3 N1          0.6878   -0.4765   -1.2033 N.pl3     1 <0>        -0.5845
      4 C3         -0.0235   -0.7078   -2.3686 C.ar      1 <0>         0.3834
      5 C4          0.3070   -0.0045   -3.5385 C.ar      1 <0>        -0.1894
      6 C5         -0.3688   -0.3141   -4.7239 C.ar      1 <0>         0.0026
      7 C6         -1.3673   -1.2722   -4.6820 C.ar      1 <0>        -0.1674
      8 C7         -1.6673   -1.8895   -3.4815 C.ar      1 <0>         0.1550
      9 N2         -1.0030   -1.5991   -2.3797 N.ar      1 <0>        -0.4938
     10 C8          1.3086    1.0652   -3.5226 C.2       1 <0>         0.5727
     11 O1          1.0812    2.0474   -4.2021 O.2       1 <0>        -0.4928
     12 N3          2.4399    1.0568   -2.8329 N.am      1 <0>        -0.5387
     13 C9          2.9138    0.0261   -2.0183 C.ar      1 <0>         0.1031
     14 C10         2.0651   -0.6930   -1.1921 C.ar      1 <0>         0.3981
     15 N4          2.5579   -1.6192   -0.3778 N.ar      1 <0>        -0.5108
     16 C11         3.8484   -1.9126   -0.3521 C.ar      1 <0>         0.4743
     17 C12         4.7422   -1.2547   -1.1862 C.ar      1 <0>        -0.1755
     18 C13         4.2725   -0.2771   -2.0289 C.ar      1 <0>         0.0246
     19 N5          4.3147   -2.8914    0.5215 N.pl3     1 <0>        -0.5937
     20 C14         3.4882   -3.6715    1.4543 C.3       1 <0>         0.0762
     21 C15         4.4355   -4.6103    2.2307 C.3       1 <0>        -0.1299
     22 C16         5.8115   -3.9065    2.0937 C.3       1 <0>        -0.1350
     23 C17         5.7179   -3.3218    0.6598 C.3       1 <0>         0.1001
     24 C18         3.2807    2.2521   -2.9357 C.3       1 <0>         0.0517
     25 H1          1.0039    1.9031    0.0027 H         1 <0>         0.0590
     26 H2         -0.5459    1.8868   -0.8726 H         1 <0>         0.0653
     27 H3         -0.5289    1.8773    0.9072 H         1 <0>         0.0853
     28 H4          0.5293   -0.3651    0.8851 H         1 <0>         0.0781
     29 H5         -1.0205   -0.3814    0.0098 H         1 <0>         0.1055
     30 H6         -0.1177    0.1826   -5.6494 H         1 <0>         0.1579
     31 H7         -1.9077   -1.5351   -5.5794 H         1 <0>         0.1598
     32 H8         -2.4599   -2.6221   -3.4454 H         1 <0>         0.1780
     33 H9          5.7915   -1.5102   -1.1738 H         1 <0>         0.1880
     34 H10         4.9495    0.2510   -2.6840 H         1 <0>         0.1839
     35 H11         2.9795   -3.0019    2.1478 H         1 <0>         0.0845
     36 H12         2.7569   -4.2591    0.8993 H         1 <0>         0.0863
     37 H13         4.1393   -4.6774    3.2775 H         1 <0>         0.1002
     38 H14         4.4605   -5.5986    1.7717 H         1 <0>         0.0913
     39 H15         5.9213   -3.1154    2.8354 H         1 <0>         0.0881
     40 H16         6.6273   -4.6256    2.1680 H         1 <0>         0.1054
     41 H17         5.9550   -4.0861   -0.0803 H         1 <0>         0.0968
     42 H18         6.3884   -2.4690    0.5538 H         1 <0>         0.0976
     43 H19         2.8034    2.9764   -3.5958 H         1 <0>         0.1166
     44 H20         3.4097    2.6918   -1.9467 H         1 <0>         0.0784
     45 H21         4.2545    1.9775   -3.3411 H         1 <0>         0.0796
     46 H22         1.9549   -2.0942    0.2153 H         1 <0>         0.4371
@<TRIPOS>BOND
     1    1    2 1
     2    1   25 1
     3    1   26 1
     4    1   27 1
     5    2    3 1
     6    2   28 1
     7    2   29 1
     8    3   14 1
     9    3    4 1
    10    4    9 ar
    11    4    5 ar
    12    5    6 ar
    13    5   10 1
    14    6    7 ar
    15    6   30 1
    16    7    8 ar
    17    7   31 1
    18    8    9 ar
    19    8   32 1
    20   10   11 2
    21   10   12 am
    22   12   13 1
    23   12   24 1
    24   13   18 ar
    25   13   14 ar
    26   14   15 ar
    27   15   16 ar
    28   15   46 1
    29   16   17 ar
    30   16   19 1
    31   17   18 ar
    32   17   33 1
    33   18   34 1
    34   19   23 1
    35   19   20 1
    36   20   21 1
    37   20   35 1
    38   20   36 1
    39   21   22 1
    40   21   37 1
    41   21   38 1
    42   22   23 1
    43   22   39 1
    44   22   40 1
    45   23   41 1
    46   23   42 1
    47   24   43 1
    48   24   44 1
    49   24   45 1
@<TRIPOS>MOLECULE
CHEMBL144326__1
   45    48     0     0     0
SMALL
USER_CHARGES

@<TRIPOS>ATOM
      1 C1         -0.0187    1.5258    0.0104 C.3       1 <0>        -0.1706
      2 C2          0.0021   -0.0041    0.0020 C.3       1 <0>         0.1392
      3 N1         -1.3723   -0.5112    0.0124 N.pl3     1 <0>        -0.5790
      4 C3         -2.0200   -0.7545    1.2118 C.ar      1 <0>         0.4162
      5 C4         -3.2157   -0.0800    1.5081 C.ar      1 <0>        -0.1968
      6 C5         -3.8966   -0.4027    2.6871 C.ar      1 <0>        -0.0028
      7 C6         -3.3373   -1.3441    3.5342 C.ar      1 <0>        -0.1926
      8 C7         -2.1325   -1.9325    3.1959 C.ar      1 <0>         0.1481
      9 N2         -1.5178   -1.6305    2.0688 N.ar      1 <0>        -0.5012
     10 C8         -3.7293    0.9740    0.6289 C.2       1 <0>         0.5740
     11 O1         -4.2288    1.9459    1.1621 O.2       1 <0>        -0.5334
     12 N3         -3.6973    0.9618   -0.6956 N.am      1 <0>        -0.5307
     13 C9         -3.2030   -0.0597   -1.5097 C.ar      1 <0>         0.0250
     14 C10        -2.0454   -0.7488   -1.1852 C.ar      1 <0>         0.4144
     15 N4         -1.5634   -1.6661   -2.0159 N.ar      1 <0>        -0.5375
     16 C11        -2.1789   -1.9793   -3.1452 C.ar      1 <0>         0.4386
     17 C12        -3.3643   -1.3522   -3.5045 C.ar      1 <0>        -0.2182
     18 C13        -3.8835   -0.3842   -2.6801 C.ar      1 <0>        -0.0353
     19 N5         -1.6312   -2.9479   -3.9821 N.pl3     1 <0>        -0.6143
     20 C14        -0.4490   -3.7693   -3.6833 C.3       1 <0>         0.1203
     21 C15        -0.2016   -4.6780   -4.9058 C.3       1 <0>        -0.1345
     22 C16        -0.9189   -3.9194   -6.0536 C.3       1 <0>        -0.1334
     23 C17        -2.1445   -3.3243   -5.3119 C.3       1 <0>         0.1151
     24 C18        -4.2365    2.1416   -1.3766 C.3       1 <0>         0.0612
     25 H1          1.0039    1.9031    0.0027 H         1 <0>         0.0710
     26 H2         -0.5459    1.8868   -0.8726 H         1 <0>         0.0547
     27 H3         -0.5289    1.8773    0.9072 H         1 <0>         0.0541
     28 H4          0.5123   -0.3556   -0.8948 H         1 <0>         0.0816
     29 H5          0.5293   -0.3651    0.8851 H         1 <0>         0.0822
     30 H6         -4.8359    0.0715    2.9306 H         1 <0>         0.1474
     31 H7         -3.8376   -1.6164    4.4517 H         1 <0>         0.1478
     32 H8         -1.6868   -2.6519    3.8669 H         1 <0>         0.1666
     33 H9         -3.8717   -1.6239   -4.4184 H         1 <0>         0.1406
     34 H10        -4.8023    0.1202   -2.9407 H         1 <0>         0.1450
     35 H11         0.4162   -3.1273   -3.5176 H         1 <0>         0.0658
     36 H12        -0.6352   -4.3794   -2.7995 H         1 <0>         0.0638
     37 H13         0.8653   -4.7674   -5.1103 H         1 <0>         0.0835
     38 H14        -0.6497   -5.6599   -4.7534 H         1 <0>         0.0767
     39 H15        -0.2831   -3.1322   -6.4588 H         1 <0>         0.0778
     40 H16        -1.2352   -4.6067   -6.8383 H         1 <0>         0.0867
     41 H17        -2.9327   -4.0711   -5.2168 H         1 <0>         0.0685
     42 H18        -2.5155   -2.4448   -5.8381 H         1 <0>         0.0756
     43 H19        -4.5877    2.8598   -0.6357 H         1 <0>         0.1034
     44 H20        -3.4557    2.5989   -1.9843 H         1 <0>         0.0675
     45 H21        -5.0672    1.8438   -2.0163 H         1 <0>         0.0679
@<TRIPOS>BOND
     1    1    2 1
     2    1   25 1
     3    1   26 1
     4    1   27 1
     5    2    3 1
     6    2   28 1
     7    2   29 1
     8    3   14 1
     9    3    4 1
    10    4    9 ar
    11    4    5 ar
    12    5    6 ar
    13    5   10 1
    14    6    7 ar
    15    6   30 1
    16    7    8 ar
    17    7   31 1
    18    8    9 ar
    19    8   32 1
    20   10   11 2
    21   10   12 am
    22   12   13 1
    23   12   24 1
    24   13   18 ar
    25   13   14 ar
    26   14   15 ar
    27   15   16 ar
    28   16   17 ar
    29   16   19 1
    30   17   18 ar
    31   17   33 1
    32   18   34 1
    33   19   23 1
    34   19   20 1
    35   20   21 1
    36   20   35 1
    37   20   36 1
    38   21   22 1
    39   21   37 1
    40   21   38 1
    41   22   23 1
    42   22   39 1
    43   22   40 1
    44   23   41 1
    45   23   42 1
    46   24   43 1
    47   24   44 1
    48   24   45 1
@<TRIPOS>MOLECULE
CHEMBL1160246
   45    47     0     0     0
SMALL
USER_CHARGES

@<TRIPOS>ATOM
      1 C1         -0.0173    1.4248    0.0099 C.3       1 <0>         0.0334
      2 O1          0.0021   -0.0041    0.0020 O.3       1 <0>        -0.3930
      3 C2          0.6518   -0.5703   -1.1379 C.3       1 <0>         0.0642
      4 C3          0.6131   -2.0967   -1.0411 C.3       1 <0>         0.0779
      5 H1          1.0325   -2.4307   -0.0920 H         1 <0>         0.1048
      6 C4          1.3732   -2.7384   -2.2297 C.3       1 <0>         0.1489
      7 H2          2.4369   -2.8267   -2.0090 H         1 <0>         0.1105
      8 C5          0.7105   -4.1345   -2.3226 C.3       1 <0>         0.0574
      9 C6         -0.6423   -3.9589   -1.6058 C.3       1 <0>         0.2711
     10 H3         -0.6838   -4.6054   -0.7291 H         1 <0>         0.1191
     11 O2         -0.7375   -2.5821   -1.1989 O.3       1 <0>        -0.3492
     12 N1         -1.7375   -4.2898   -2.5208 N.pl3     1 <0>        -0.4401
     13 C7         -2.4391   -3.4099   -3.2895 C.2       1 <0>         0.2546
     14 N2         -3.3392   -4.0484   -3.9802 N.2       1 <0>        -0.4367
     15 C8         -3.2676   -5.3695   -3.6958 C.2       1 <0>        -0.0940
     16 C9         -2.2388   -5.5390   -2.7641 C.2       1 <0>         0.2443
     17 N3         -1.9509   -6.7677   -2.3123 N.2       1 <0>        -0.5089
     18 C10        -2.6106   -7.8126   -2.7274 C.2       1 <0>         0.3848
     19 N4         -3.6175   -7.7188   -3.6322 N.am      1 <0>        -0.5380
     20 C11        -3.9773   -6.5158   -4.1328 C.2       1 <0>         0.5777
     21 O3         -4.8793   -6.4209   -4.9473 O.2       1 <0>        -0.5067
     22 C12        -4.3241   -8.9276   -4.0631 C.3       1 <0>         0.2136
     23 C13        -5.4732   -9.1672   -3.1748 C.1       1 <0>        -0.2220
     24 C14        -6.3896   -9.3583   -2.4664 C.1       1 <0>        -0.1565
     25 O4          1.5084   -5.1124   -1.6525 O.3       1 <0>        -0.5365
     26 O5          1.1641   -1.9930   -3.4308 O.3       1 <0>        -0.7415
     27 P1          2.3644   -1.3130   -4.2609 P.3       1 <0>         2.2535
     28 O6          3.4210   -2.3847   -4.6100 O.2       1 <0>        -1.0838
     29 C15         1.7051   -0.5863   -5.7974 C.3       1 <0>        -0.7679
     30 O7          3.0182   -0.2044   -3.4061 O.3       1 <0>        -1.0788
     31 H4          1.0053    1.8021    0.0021 H         1 <0>         0.0460
     32 H5         -0.5445    1.7859   -0.8732 H         1 <0>         0.0394
     33 H6         -0.5275    1.7763    0.9067 H         1 <0>         0.0810
     34 H7          0.1385   -0.2506   -2.0447 H         1 <0>         0.0662
     35 H8          1.6883   -0.2344   -1.1694 H         1 <0>         0.0979
     36 H9          0.5566   -4.4151   -3.3645 H         1 <0>         0.0923
     37 H10        -2.2735   -2.3431   -3.3208 H         1 <0>         0.2266
     38 H11        -2.3468   -8.7850   -2.3387 H         1 <0>         0.2155
     39 H12        -4.6767   -8.7971   -5.0862 H         1 <0>         0.1237
     40 H13        -3.6463   -9.7801   -4.0183 H         1 <0>         0.1235
     41 H14        -7.2093   -9.5292   -1.8328 H         1 <0>         0.2217
     42 H15         1.1401   -6.0061   -1.6795 H         1 <0>         0.3864
     43 H16         0.9597    0.1698   -5.5510 H         1 <0>         0.0671
     44 H17         2.5177   -0.1259   -6.3593 H         1 <0>         0.0840
     45 H18         1.2438   -1.3684   -6.4004 H         1 <0>         0.0662
@<TRIPOS>BOND
     1    1    2 1
     2    1   31 1
     3    1   32 1
     4    1   33 1
     5    2    3 1
     6    3    4 1
     7    3   34 1
     8    3   35 1
     9    4    5 1
    10    4   11 1
    11    4    6 1
    12    6    7 1
    13    6    8 1
    14    6   26 1
    15    8    9 1
    16    8   25 1
    17    8   36 1
    18    9   10 1
    19    9   11 1
    20    9   12 1
    21   12   16 1
    22   12   13 1
    23   13   14 2
    24   13   37 1
    25   14   15 1
    26   15   20 1
    27   15   16 2
    28   16   17 1
    29   17   18 2
    30   18   19 1
    31   18   38 1
    32   19   20 am
    33   19   22 1
    34   20   21 2
    35   22   23 1
    36   22   39 1
    37   22   40 1
    38   23   24 3
    39   24   41 1
    40   25   42 1
    41   26   27 1
    42   27   28 2
    43   27   29 1
    44   27   30 1
    45   29   43 1
    46   29   44 1
    47   29   45 1
@<TRIPOS>MOLECULE
CHEMBL1160246__1
   45    47     0     0     0
SMALL
USER_CHARGES

@<TRIPOS>ATOM
      1 C1         -0.0173    1.4248    0.0099 C.3       1 <0>         0.0334
      2 O1          0.0021   -0.0041    0.0020 O.3       1 <0>        -0.3930
      3 C2          0.6518   -0.5703   -1.1379 C.3       1 <0>         0.0642
      4 C3          0.6131   -2.0967   -1.0411 C.3       1 <0>         0.0779
      5 H1          1.0325   -2.4307   -0.0920 H         1 <0>         0.1048
      6 C4          1.3732   -2.7384   -2.2297 C.3       1 <0>         0.1489
      7 H2          2.4369   -2.8267   -2.0090 H         1 <0>         0.1105
      8 C5          0.7105   -4.1345   -2.3226 C.3       1 <0>         0.0574
      9 C6         -0.6423   -3.9589   -1.6058 C.3       1 <0>         0.2711
     10 H3         -0.6838   -4.6054   -0.7291 H         1 <0>         0.1191
     11 O2         -0.7375   -2.5821   -1.1989 O.3       1 <0>        -0.3492
     12 N1         -1.7375   -4.2898   -2.5208 N.pl3     1 <0>        -0.4401
     13 C7         -2.4391   -3.4099   -3.2895 C.2       1 <0>         0.2546
     14 N2         -3.3392   -4.0484   -3.9802 N.2       1 <0>        -0.4367
     15 C8         -3.2676   -5.3695   -3.6958 C.2       1 <0>        -0.0940
     16 C9         -2.2388   -5.5390   -2.7641 C.2       1 <0>         0.2443
     17 N3         -1.9509   -6.7677   -2.3123 N.2       1 <0>        -0.5089
     18 C10        -2.6106   -7.8126   -2.7274 C.2       1 <0>         0.3848
     19 N4         -3.6175   -7.7188   -3.6322 N.am      1 <0>        -0.5380
     20 C11        -3.9773   -6.5158   -4.1328 C.2       1 <0>         0.5777
     21 O3         -4.8793   -6.4209   -4.9473 O.2       1 <0>        -0.5067
     22 C12        -4.3241   -8.9276   -4.0631 C.3       1 <0>         0.2136
     23 C13        -5.4732   -9.1672   -3.1748 C.1       1 <0>        -0.2220
     24 C14        -6.3896   -9.3583   -2.4664 C.1       1 <0>        -0.1565
     25 O4          1.5084   -5.1124   -1.6525 O.3       1 <0>        -0.5365
     26 O5          1.1641   -1.9930   -3.4308 O.3       1 <0>        -0.7415
     27 P1          2.3644   -1.3130   -4.2609 P.3       1 <0>         2.2535
     28 O6          3.4210   -2.3847   -4.6100 O.2       1 <0>        -1.0838
     29 C15         1.7051   -0.5863   -5.7974 C.3       1 <0>        -0.7679
     30 O7          3.0182   -0.2044   -3.4061 O.3       1 <0>        -1.0788
     31 H4          1.0053    1.8021    0.0021 H         1 <0>         0.0460
     32 H5         -0.5445    1.7859   -0.8732 H         1 <0>         0.0394
     33 H6         -0.5275    1.7763    0.9067 H         1 <0>         0.0810
     34 H7          0.1385   -0.2506   -2.0447 H         1 <0>         0.0662
     35 H8          1.6883   -0.2344   -1.1694 H         1 <0>         0.0979
     36 H9          0.5566   -4.4151   -3.3645 H         1 <0>         0.0923
     37 H10        -2.2735   -2.3431   -3.3208 H         1 <0>         0.2266
     38 H11        -2.3468   -8.7850   -2.3387 H         1 <0>         0.2155
     39 H12        -4.6767   -8.7971   -5.0862 H         1 <0>         0.1237
     40 H13        -3.6463   -9.7801   -4.0183 H         1 <0>         0.1235
     41 H14        -7.2093   -9.5292   -1.8328 H         1 <0>         0.2217
     42 H15         1.1401   -6.0061   -1.6795 H         1 <0>         0.3864
     43 H16         0.9597    0.1698   -5.5510 H         1 <0>         0.0671
     44 H17         2.5177   -0.1259   -6.3593 H         1 <0>         0.0840
     45 H18         1.2438   -1.3684   -6.4004 H         1 <0>         0.0662
@<TRIPOS>BOND
     1    1    2 1
     2    1   31 1
     3    1   32 1
     4    1   33 1
     5    2    3 1
     6    3    4 1
     7    3   34 1
     8    3   35 1
     9    4    5 1
    10    4   11 1
    11    4    6 1
    12    6    7 1
    13    6    8 1
    14    6   26 1
    15    8    9 1
    16    8   25 1
    17    8   36 1
    18    9   10 1
    19    9   11 1
    20    9   12 1
    21   12   16 1
    22   12   13 1
    23   13   14 2
    24   13   37 1
    25   14   15 1
    26   15   20 1
    27   15   16 2
    28   16   17 1
    29   17   18 2
    30   18   19 1
    31   18   38 1
    32   19   20 am
    33   19   22 1
    34   20   21 2
    35   22   23 1
    36   22   39 1
    37   22   40 1
    38   23   24 3
    39   24   41 1
    40   25   42 1
    41   26   27 1
    42   27   28 2
    43   27   29 1
    44   27   30 1
    45   29   43 1
    46   29   44 1
    47   29   45 1
@<TRIPOS>MOLECULE
CHEMBL1160246__2
   45    47     0     0     0
SMALL
USER_CHARGES

@<TRIPOS>ATOM
      1 C1         -0.0173    1.4248    0.0099 C.3       1 <0>         0.0337
      2 O1          0.0021   -0.0041    0.0020 O.3       1 <0>        -0.3936
      3 C2          0.6518   -0.5703   -1.1379 C.3       1 <0>         0.0655
      4 C3          0.6131   -2.0967   -1.0411 C.3       1 <0>         0.0716
      5 H1          1.0325   -2.4307   -0.0920 H         1 <0>         0.1022
      6 C4          1.3732   -2.7384   -2.2297 C.3       1 <0>         0.1497
      7 H2          2.4369   -2.8267   -2.0090 H         1 <0>         0.1026
      8 C5          0.7105   -4.1345   -2.3226 C.3       1 <0>         0.0565
      9 C6         -0.6423   -3.9589   -1.6058 C.3       1 <0>         0.2665
     10 H3         -0.6838   -4.6054   -0.7291 H         1 <0>         0.1153
     11 O2         -0.7375   -2.5821   -1.1989 O.3       1 <0>        -0.3487
     12 N1         -1.7375   -4.2898   -2.5208 N.pl3     1 <0>        -0.4310
     13 C7         -2.4391   -3.4099   -3.2895 C.2       1 <0>         0.2696
     14 N2         -3.3392   -4.0484   -3.9802 N.2       1 <0>        -0.4403
     15 C8         -3.2676   -5.3695   -3.6958 C.2       1 <0>        -0.0893
     16 C9         -2.2388   -5.5390   -2.7641 C.2       1 <0>         0.2347
     17 N3         -1.9509   -6.7677   -2.3123 N.2       1 <0>        -0.5087
     18 C10        -2.6106   -7.8126   -2.7274 C.2       1 <0>         0.3822
     19 N4         -3.6175   -7.7188   -3.6322 N.am      1 <0>        -0.5377
     20 C11        -3.9773   -6.5158   -4.1328 C.2       1 <0>         0.5770
     21 O3         -4.8793   -6.4209   -4.9473 O.2       1 <0>        -0.5075
     22 C12        -4.3241   -8.9276   -4.0631 C.3       1 <0>         0.2136
     23 C13        -5.4732   -9.1672   -3.1748 C.1       1 <0>        -0.2212
     24 C14        -6.3896   -9.3583   -2.4664 C.1       1 <0>        -0.1578
     25 O4          0.5087   -4.5024   -3.6886 O.3       1 <0>        -0.5119
     26 O5          1.1641   -1.9930   -3.4308 O.3       1 <0>        -0.7271
     27 P1          2.3644   -1.3130   -4.2609 P.3       1 <0>         2.2618
     28 O6          3.4210   -2.3847   -4.6100 O.2       1 <0>        -1.0872
     29 C15         1.7051   -0.5863   -5.7974 C.3       1 <0>        -0.7674
     30 O7          3.0182   -0.2044   -3.4061 O.3       1 <0>        -1.0869
     31 H4          1.0053    1.8021    0.0021 H         1 <0>         0.0459
     32 H5         -0.5445    1.7859   -0.8732 H         1 <0>         0.0395
     33 H6         -0.5275    1.7763    0.9067 H         1 <0>         0.0809
     34 H7          0.1385   -0.2506   -2.0447 H         1 <0>         0.0667
     35 H8          1.6883   -0.2344   -1.1694 H         1 <0>         0.0973
     36 H9          1.3192   -4.8804   -1.8115 H         1 <0>         0.0993
     37 H10        -2.2735   -2.3431   -3.3208 H         1 <0>         0.2234
     38 H11        -2.3468   -8.7850   -2.3387 H         1 <0>         0.2140
     39 H12        -4.6767   -8.7971   -5.0862 H         1 <0>         0.1236
     40 H13        -3.6463   -9.7801   -4.0183 H         1 <0>         0.1231
     41 H14        -7.2093   -9.5292   -1.8328 H         1 <0>         0.2215
     42 H15         0.0961   -5.3691   -3.8056 H         1 <0>         0.3654
     43 H16         0.9597    0.1698   -5.5510 H         1 <0>         0.0647
     44 H17         2.5177   -0.1259   -6.3593 H         1 <0>         0.0812
     45 H18         1.2438   -1.3684   -6.4004 H         1 <0>         0.0672
@<TRIPOS>BOND
     1    1    2 1
     2    1   31 1
     3    1   32 1
     4    1   33 1
     5    2    3 1
     6    3    4 1
     7    3   34 1
     8    3   35 1
     9    4    5 1
    10    4   11 1
    11    4    6 1
    12    6    7 1
    13    6    8 1
    14    6   26 1
    15    8    9 1
    16    8   25 1
    17    8   36 1
    18    9   10 1
    19    9   11 1
    20    9   12 1
    21   12   16 1
    22   12   13 1
    23   13   14 2
    24   13   37 1
    25   14   15 1
    26   15   20 1
    27   15   16 2
    28   16   17 1
    29   17   18 2
    30   18   19 1
    31   18   38 1
    32   19   20 am
    33   19   22 1
    34   20   21 2
    35   22   23 1
    36   22   39 1
    37   22   40 1
    38   23   24 3
    39   24   41 1
    40   25   42 1
    41   26   27 1
    42   27   28 2
    43   27   29 1
    44   27   30 1
    45   29   43 1
    46   29   44 1
    47   29   45 1
@<TRIPOS>MOLECULE
CHEMBL1160246__3
   45    47     0     0     0
SMALL
USER_CHARGES

@<TRIPOS>ATOM
      1 C1         -0.0173    1.4248    0.0099 C.3       1 <0>         0.0337
      2 O1          0.0021   -0.0041    0.0020 O.3       1 <0>        -0.3936
      3 C2          0.6518   -0.5703   -1.1379 C.3       1 <0>         0.0655
      4 C3          0.6131   -2.0967   -1.0411 C.3       1 <0>         0.0716
      5 H1          1.0325   -2.4307   -0.0920 H         1 <0>         0.1022
      6 C4          1.3732   -2.7384   -2.2297 C.3       1 <0>         0.1497
      7 H2          2.4369   -2.8267   -2.0090 H         1 <0>         0.1026
      8 C5          0.7105   -4.1345   -2.3226 C.3       1 <0>         0.0565
      9 C6         -0.6423   -3.9589   -1.6058 C.3       1 <0>         0.2665
     10 H3         -0.6838   -4.6054   -0.7291 H         1 <0>         0.1153
     11 O2         -0.7375   -2.5821   -1.1989 O.3       1 <0>        -0.3487
     12 N1         -1.7375   -4.2898   -2.5208 N.pl3     1 <0>        -0.4310
     13 C7         -2.4391   -3.4099   -3.2895 C.2       1 <0>         0.2696
     14 N2         -3.3392   -4.0484   -3.9802 N.2       1 <0>        -0.4403
     15 C8         -3.2676   -5.3695   -3.6958 C.2       1 <0>        -0.0893
     16 C9         -2.2388   -5.5390   -2.7641 C.2       1 <0>         0.2347
     17 N3         -1.9509   -6.7677   -2.3123 N.2       1 <0>        -0.5087
     18 C10        -2.6106   -7.8126   -2.7274 C.2       1 <0>         0.3822
     19 N4         -3.6175   -7.7188   -3.6322 N.am      1 <0>        -0.5377
     20 C11        -3.9773   -6.5158   -4.1328 C.2       1 <0>         0.5770
     21 O3         -4.8793   -6.4209   -4.9473 O.2       1 <0>        -0.5075
     22 C12        -4.3241   -8.9276   -4.0631 C.3       1 <0>         0.2136
     23 C13        -5.4732   -9.1672   -3.1748 C.1       1 <0>        -0.2212
     24 C14        -6.3896   -9.3583   -2.4664 C.1       1 <0>        -0.1578
     25 O4          0.5087   -4.5024   -3.6886 O.3       1 <0>        -0.5119
     26 O5          1.1641   -1.9930   -3.4308 O.3       1 <0>        -0.7271
     27 P1          2.3644   -1.3130   -4.2609 P.3       1 <0>         2.2618
     28 O6          3.4210   -2.3847   -4.6100 O.2       1 <0>        -1.0872
     29 C15         1.7051   -0.5863   -5.7974 C.3       1 <0>        -0.7674
     30 O7          3.0182   -0.2044   -3.4061 O.3       1 <0>        -1.0869
     31 H4          1.0053    1.8021    0.0021 H         1 <0>         0.0459
     32 H5         -0.5445    1.7859   -0.8732 H         1 <0>         0.0395
     33 H6         -0.5275    1.7763    0.9067 H         1 <0>         0.0809
     34 H7          0.1385   -0.2506   -2.0447 H         1 <0>         0.0667
     35 H8          1.6883   -0.2344   -1.1694 H         1 <0>         0.0973
     36 H9          1.3192   -4.8804   -1.8115 H         1 <0>         0.0993
     37 H10        -2.2735   -2.3431   -3.3208 H         1 <0>         0.2234
     38 H11        -2.3468   -8.7850   -2.3387 H         1 <0>         0.2140
     39 H12        -4.6767   -8.7971   -5.0862 H         1 <0>         0.1236
     40 H13        -3.6463   -9.7801   -4.0183 H         1 <0>         0.1231
     41 H14        -7.2093   -9.5292   -1.8328 H         1 <0>         0.2215
     42 H15         0.0961   -5.3691   -3.8056 H         1 <0>         0.3654
     43 H16         0.9597    0.1698   -5.5510 H         1 <0>         0.0647
     44 H17         2.5177   -0.1259   -6.3593 H         1 <0>         0.0812
     45 H18         1.2438   -1.3684   -6.4004 H         1 <0>         0.0672
@<TRIPOS>BOND
     1    1    2 1
     2    1   31 1
     3    1   32 1
     4    1   33 1
     5    2    3 1
     6    3    4 1
     7    3   34 1
     8    3   35 1
     9    4    5 1
    10    4   11 1
    11    4    6 1
    12    6    7 1
    13    6    8 1
    14    6   26 1
    15    8    9 1
    16    8   25 1
    17    8   36 1
    18    9   10 1
    19    9   11 1
    20    9   12 1
    21   12   16 1
    22   12   13 1
    23   13   14 2
    24   13   37 1
    25   14   15 1
    26   15   20 1
    27   15   16 2
    28   16   17 1
    29   17   18 2
    30   18   19 1
    31   18   38 1
    32   19   20 am
    33   19   22 1
    34   20   21 2
    35   22   23 1
    36   22   39 1
    37   22   40 1
    38   23   24 3
    39   24   41 1
    40   25   42 1
    41   26   27 1
    42   27   28 2
    43   27   29 1
    44   27   30 1
    45   29   43 1
    46   29   44 1
    47   29   45 1
@<TRIPOS>MOLECULE
CHEMBL358555
   40    43     0     0     0
SMALL
USER_CHARGES

@<TRIPOS>ATOM
      1 C1         -0.0187    1.5258    0.0104 C.3       1 <0>        -0.1712
      2 C2          0.0021   -0.0041    0.0020 C.3       1 <0>         0.1367
      3 N1         -1.3723   -0.5112    0.0124 N.pl3     1 <0>        -0.5780
      4 C3         -2.0200   -0.7545    1.2117 C.ar      1 <0>         0.4159
      5 C4         -3.2161   -0.0803    1.5075 C.ar      1 <0>        -0.2021
      6 C5         -3.8971   -0.4029    2.6866 C.ar      1 <0>        -0.0011
      7 C6         -3.3376   -1.3438    3.5340 C.ar      1 <0>        -0.1913
      8 C7         -2.1325   -1.9319    3.1961 C.ar      1 <0>         0.1514
      9 N2         -1.5177   -1.6301    2.0690 N.ar      1 <0>        -0.4984
     10 C8         -3.7300    0.9730    0.6279 C.2       1 <0>         0.5770
     11 O1         -4.2295    1.9449    1.1608 O.2       1 <0>        -0.5235
     12 N3         -3.6982    0.9605   -0.6965 N.am      1 <0>        -0.5378
     13 C9         -3.2057   -0.0585   -1.5095 C.ar      1 <0>         0.0878
     14 C10        -2.0454   -0.7488   -1.1850 C.ar      1 <0>         0.3777
     15 N4         -1.5634   -1.6642   -2.0140 N.ar      1 <0>        -0.4635
     16 C11        -2.1814   -1.9786   -3.1476 C.ar      1 <0>         0.2244
     17 C12        -3.3715   -1.3484   -3.5059 C.ar      1 <0>        -0.1576
     18 C13        -3.8880   -0.3820   -2.6799 C.ar      1 <0>        -0.0706
     19 C14        -1.6009   -3.0060   -4.0369 C.2       1 <0>        -0.0052
     20 C15        -0.4558   -3.7120   -3.8277 C.2       1 <0>         0.0474
     21 N5         -0.2866   -4.5371   -4.8667 N.2       1 <0>        -0.4970
     22 C16        -1.2687   -4.3811   -5.7135 C.2       1 <0>         0.2118
     23 N6         -2.1147   -3.4424   -5.2378 N.pl3     1 <0>        -0.5626
     24 H1         -2.9295   -3.1322   -5.6629 H         1 <0>         0.4215
     25 C17        -4.2374    2.1404   -1.3771 C.3       1 <0>         0.0581
     26 H2          1.0039    1.9031    0.0027 H         1 <0>         0.0731
     27 H3         -0.5459    1.8868   -0.8726 H         1 <0>         0.0537
     28 H4         -0.5289    1.8773    0.9072 H         1 <0>         0.0542
     29 H5          0.5123   -0.3556   -0.8948 H         1 <0>         0.0851
     30 H6          0.5293   -0.3651    0.8851 H         1 <0>         0.0854
     31 H7         -4.8365    0.0710    2.9299 H         1 <0>         0.1481
     32 H8         -3.8379   -1.6160    4.4516 H         1 <0>         0.1492
     33 H9         -1.6866   -2.6510    3.8674 H         1 <0>         0.1687
     34 H10        -3.8805   -1.6187   -4.4193 H         1 <0>         0.1393
     35 H11        -4.8070    0.1229   -2.9385 H         1 <0>         0.1498
     36 H12         0.1998   -3.6219   -2.9741 H         1 <0>         0.1801
     37 H13        -1.3872   -4.9192   -6.6424 H         1 <0>         0.2158
     38 H14        -4.5882    2.8587   -0.6361 H         1 <0>         0.1070
     39 H15        -3.4567    2.5976   -1.9851 H         1 <0>         0.0704
     40 H16        -5.0685    1.8429   -2.0166 H         1 <0>         0.0705
@<TRIPOS>BOND
     1    1    2 1
     2    1   26 1
     3    1   27 1
     4    1   28 1
     5    2    3 1
     6    2   29 1
     7    2   30 1
     8    3   14 1
     9    3    4 1
    10    4    9 ar
    11    4    5 ar
    12    5    6 ar
    13    5   10 1
    14    6    7 ar
    15    6   31 1
    16    7    8 ar
    17    7   32 1
    18    8    9 ar
    19    8   33 1
    20   10   11 2
    21   10   12 am
    22   12   13 1
    23   12   25 1
    24   13   18 ar
    25   13   14 ar
    26   14   15 ar
    27   15   16 ar
    28   16   17 ar
    29   16   19 1
    30   17   18 ar
    31   17   34 1
    32   18   35 1
    33   19   23 1
    34   19   20 2
    35   20   21 1
    36   20   36 1
    37   21   22 2
    38   22   23 1
    39   22   37 1
    40   23   24 1
    41   25   38 1
    42   25   39 1
    43   25   40 1
@<TRIPOS>MOLECULE
CHEMBL358555__1
   40    43     0     0     0
SMALL
USER_CHARGES

@<TRIPOS>ATOM
      1 C1         -0.0187    1.5258    0.0104 C.3       1 <0>        -0.1715
      2 C2          0.0021   -0.0041    0.0020 C.3       1 <0>         0.1385
      3 N1          0.6878   -0.4765   -1.2033 N.pl3     1 <0>        -0.5781
      4 C3         -0.0234   -0.7078   -2.3685 C.ar      1 <0>         0.4172
      5 C4          0.3079   -0.0053   -3.5387 C.ar      1 <0>        -0.2007
      6 C5         -0.3679   -0.3149   -4.7242 C.ar      1 <0>        -0.0012
      7 C6         -1.3671   -1.2722   -4.6820 C.ar      1 <0>        -0.1926
      8 C7         -1.6677   -1.8888   -3.4814 C.ar      1 <0>         0.1497
      9 N2         -1.0035   -1.5985   -2.3796 N.ar      1 <0>        -0.5007
     10 C8          1.3104    1.0634   -3.5231 C.2       1 <0>         0.5763
     11 O1          1.0837    2.0456   -4.2029 O.2       1 <0>        -0.5267
     12 N3          2.4417    1.0546   -2.8335 N.am      1 <0>        -0.5368
     13 C9          2.9148    0.0263   -2.0200 C.ar      1 <0>         0.0874
     14 C10         2.0650   -0.6930   -1.1922 C.ar      1 <0>         0.3658
     15 N4          2.5567   -1.6172   -0.3783 N.ar      1 <0>        -0.4740
     16 C11         3.8508   -1.9118   -0.3529 C.ar      1 <0>         0.2284
     17 C12         4.7454   -1.2523   -1.1904 C.ar      1 <0>        -0.1265
     18 C13         4.2738   -0.2767   -2.0311 C.ar      1 <0>        -0.0807
     19 C14         4.3481   -2.9533    0.5773 C.2       1 <0>         0.0268
     20 C15         3.5947   -3.6797    1.4450 C.2       1 <0>         0.0078
     21 N5          4.4510   -4.5171    2.1021 N.pl3     1 <0>        -0.5690
     22 C16         5.6931   -4.2833    1.6239 C.2       1 <0>         0.1935
     23 N6          5.6289   -3.3552    0.7112 N.2       1 <0>        -0.4765
     24 H1          4.2114   -5.1614    2.7865 H         1 <0>         0.4257
     25 C17         3.2825    2.2499   -2.9364 C.3       1 <0>         0.0586
     26 H2          1.0039    1.9031    0.0027 H         1 <0>         0.0546
     27 H3         -0.5459    1.8868   -0.8726 H         1 <0>         0.0539
     28 H4         -0.5289    1.8773    0.9072 H         1 <0>         0.0715
     29 H5          0.5293   -0.3651    0.8851 H         1 <0>         0.0828
     30 H6         -1.0205   -0.3814    0.0098 H         1 <0>         0.0830
     31 H7         -0.1164    0.1813   -5.6499 H         1 <0>         0.1478
     32 H8         -1.9075   -1.5350   -5.5794 H         1 <0>         0.1483
     33 H9         -2.4609   -2.6209   -3.4451 H         1 <0>         0.1672
     34 H10         5.7948   -1.5074   -1.1796 H         1 <0>         0.1542
     35 H11         4.9501    0.2512   -2.6871 H         1 <0>         0.1480
     36 H12         2.5265   -3.6085    1.5873 H         1 <0>         0.1871
     37 H13         6.5933   -4.7874    1.9434 H         1 <0>         0.2140
     38 H14         2.8051    2.9742   -3.5963 H         1 <0>         0.1056
     39 H15         3.4117    2.6894   -1.9473 H         1 <0>         0.0699
     40 H16         4.2562    1.9753   -3.3420 H         1 <0>         0.0712
@<TRIPOS>BOND
     1    1    2 1
     2    1   26 1
     3    1   27 1
     4    1   28 1
     5    2    3 1
     6    2   29 1
     7    2   30 1
     8    3   14 1
     9    3    4 1
    10    4    9 ar
    11    4    5 ar
    12    5    6 ar
    13    5   10 1
    14    6    7 ar
    15    6   31 1
    16    7    8 ar
    17    7   32 1
    18    8    9 ar
    19    8   33 1
    20   10   11 2
    21   10   12 am
    22   12   13 1
    23   12   25 1
    24   13   18 ar
    25   13   14 ar
    26   14   15 ar
    27   15   16 ar
    28   16   17 ar
    29   16   19 1
    30   17   18 ar
    31   17   34 1
    32   18   35 1
    33   19   23 1
    34   19   20 2
    35   20   36 1
    36   20   21 1
    37   21   22 1
    38   21   24 1
    39   22   37 1
    40   22   23 2
    41   25   38 1
    42   25   39 1
    43   25   40 1
@<TRIPOS>MOLECULE
CHEMBL191146
   44    46     0     0     0
SMALL
USER_CHARGES

@<TRIPOS>ATOM
      1 C1          0.1884    1.2420   -0.0127 C.3       1 <0>        -0.1498
      2 C2          0.1879   -0.2823    0.1189 C.3       1 <0>        -0.1131
      3 C3         -1.2517   -0.7981    0.0682 C.3       1 <0>        -0.0743
      4 C4         -1.2620   -2.2841    0.3183 C.2       1 <0>        -0.1101
      5 C5         -1.4621   -2.7679    1.5961 C.2       1 <0>        -0.0338
      6 C6         -1.4651   -4.2257    1.7950 C.ar      1 <0>        -0.0955
      7 C7         -1.6623   -4.7813    3.0605 C.ar      1 <0>        -0.0550
      8 C8         -1.6594   -6.1511    3.2107 C.ar      1 <0>        -0.0607
      9 C9         -1.4614   -6.9771    2.1121 C.ar      1 <0>        -0.0585
     10 C10        -1.2656   -6.4422    0.8573 C.ar      1 <0>        -0.1446
     11 C11        -1.2653   -5.0622    0.6839 C.ar      1 <0>         0.1865
     12 N1         -1.0719   -4.5058   -0.5652 N.am      1 <0>        -0.6267
     13 C12        -1.0743   -3.1746   -0.7459 C.2       1 <0>         0.5410
     14 O1         -0.9040   -2.7287   -1.8687 O.2       1 <0>        -0.5199
     15 Cl1        -1.9041   -6.8478    4.7818 Cl        1 <0>        -0.0565
     16 S1         -1.7068   -1.6692    2.9517 S.3       1 <0>        -0.1063
     17 C13        -3.4198   -1.9774    3.4627 C.3       1 <0>        -0.0706
     18 C14        -4.3716   -1.5342    2.3498 C.3       1 <0>        -0.1125
     19 C15        -5.8164   -1.7941    2.7808 C.3       1 <0>        -0.1173
     20 C16        -6.1186   -1.0033    4.0553 C.3       1 <0>        -0.1226
     21 C17        -5.1668   -1.4465    5.1682 C.3       1 <0>        -0.1138
     22 C18        -3.7219   -1.1866    4.7372 C.3       1 <0>        -0.1002
     23 H1          1.2044    1.6170    0.1110 H         1 <0>         0.0560
     24 H2         -0.1847    1.5218   -0.9978 H         1 <0>         0.0555
     25 H3         -0.4540    1.6732    0.7551 H         1 <0>         0.0575
     26 H4          0.7590   -0.7180   -0.7009 H         1 <0>         0.0635
     27 H5          0.6419   -0.5652    1.0686 H         1 <0>         0.0611
     28 H6         -1.8444   -0.2967    0.8334 H         1 <0>         0.0960
     29 H7         -1.6771   -0.5920   -0.9140 H         1 <0>         0.0843
     30 H8         -1.8158   -4.1413    3.9168 H         1 <0>         0.1500
     31 H9         -1.4606   -8.0492    2.2424 H         1 <0>         0.1459
     32 H10        -1.1122   -7.0937    0.0097 H         1 <0>         0.1465
     33 H11        -3.5558   -3.0417    3.6547 H         1 <0>         0.0917
     34 H12        -4.2356   -0.4699    2.1578 H         1 <0>         0.0782
     35 H13        -4.1563   -2.0976    1.4419 H         1 <0>         0.0615
     36 H14        -6.4945   -1.4783    1.9879 H         1 <0>         0.0679
     37 H15        -5.9524   -2.8584    2.9728 H         1 <0>         0.0624
     38 H16        -5.9825    0.0610    3.8633 H         1 <0>         0.0654
     39 H17        -7.1479   -1.1884    4.3623 H         1 <0>         0.0656
     40 H18        -5.3820   -0.8831    6.0761 H         1 <0>         0.0713
     41 H19        -5.3028   -2.5108    5.3602 H         1 <0>         0.0651
     42 H20        -3.0439   -1.5023    5.5300 H         1 <0>         0.0745
     43 H21        -3.5859   -0.1223    4.5452 H         1 <0>         0.0756
     44 H22        -0.9342   -5.0884   -1.3285 H         1 <0>         0.4191
@<TRIPOS>BOND
     1    1    2 1
     2    1   23 1
     3    1   24 1
     4    1   25 1
     5    2    3 1
     6    2   26 1
     7    2   27 1
     8    3    4 1
     9    3   28 1
    10    3   29 1
    11    4   13 1
    12    4    5 2
    13    5    6 1
    14    5   16 1
    15    6   11 ar
    16    6    7 ar
    17    7    8 ar
    18    7   30 1
    19    8    9 ar
    20    8   15 1
    21    9   10 ar
    22    9   31 1
    23   10   11 ar
    24   10   32 1
    25   11   12 1
    26   12   13 am
    27   12   44 1
    28   13   14 2
    29   16   17 1
    30   17   22 1
    31   17   18 1
    32   17   33 1
    33   18   19 1
    34   18   34 1
    35   18   35 1
    36   19   20 1
    37   19   36 1
    38   19   37 1
    39   20   21 1
    40   20   38 1
    41   20   39 1
    42   21   22 1
    43   21   40 1
    44   21   41 1
    45   22   42 1
    46   22   43 1
@<TRIPOS>MOLECULE
CHEMBL122343
   64    68     0     0     0
SMALL
USER_CHARGES

@<TRIPOS>ATOM
      1 C1         -0.7696   -0.3284    0.2504 C.3       1 <0>         0.0957
      2 N1         -0.5736   -1.7321   -0.1204 N.pl3     1 <0>        -0.6642
      3 C2         -0.5202   -2.7125    0.8675 C.ar      1 <0>         0.3190
      4 C3          0.6805   -2.9538    1.5408 C.ar      1 <0>         0.2248
      5 C4          0.7155   -3.9346    2.5226 C.ar      1 <0>        -0.0852
      6 C5         -0.4500   -4.6386    2.7961 C.ar      1 <0>        -0.0781
      7 C6         -1.5990   -4.3459    2.0907 C.ar      1 <0>         0.0751
      8 N2         -1.6074   -3.4040    1.1649 N.ar      1 <0>        -0.4159
      9 N3          1.8303   -2.2180    1.2296 N.pl3     1 <0>        -0.6743
     10 C7          3.0517   -2.3995    2.0179 C.3       1 <0>         0.0562
     11 C8          3.8235   -1.1425    2.4243 C.3       1 <0>        -0.1823
     12 C9          4.3840   -2.0681    1.3426 C.3       1 <0>        -0.1767
     13 C10        -0.4337   -2.1046   -1.5303 C.3       1 <0>         0.1625
     14 C11         0.8059   -1.4250   -2.1166 C.3       1 <0>        -0.1440
     15 C12         0.9685   -1.8441   -3.5811 C.3       1 <0>         0.1170
     16 N4         -0.2787   -1.5477   -4.2991 N.am      1 <0>        -0.6207
     17 C13        -1.5423   -2.0775   -3.7686 C.3       1 <0>         0.0829
     18 C14        -1.6767   -1.6558   -2.3020 C.3       1 <0>        -0.1534
     19 C15        -0.2640   -0.8035   -5.4227 C.2       1 <0>         0.5964
     20 O1          0.7961   -0.4730   -5.9195 O.2       1 <0>        -0.5194
     21 C16        -1.5294   -0.3911   -6.0481 C.2       1 <0>        -0.0184
     22 C17        -1.7026   -0.1142   -7.3670 C.2       1 <0>        -0.1008
     23 C18        -3.0596    0.2416   -7.5589 C.ar      1 <0>        -0.0686
     24 C19        -3.8035    0.6196   -8.6848 C.ar      1 <0>        -0.1580
     25 C20        -5.1451    0.9136   -8.5495 C.ar      1 <0>         0.2606
     26 C21        -5.7607    0.8359   -7.2996 C.ar      1 <0>        -0.1780
     27 C22        -5.0412    0.4664   -6.1868 C.ar      1 <0>        -0.1022
     28 C23        -3.6868    0.1651   -6.3006 C.ar      1 <0>         0.0345
     29 N5         -2.7325   -0.2294   -5.3895 N.pl3     1 <0>        -0.5932
     30 H1         -2.8805   -0.3689   -4.4410 H         1 <0>         0.4033
     31 N6         -5.8917    1.2920   -9.6711 N.2       1 <0>        -1.0969
     32 S1         -7.5018    1.6457   -9.5133 S.o2      1 <0>         2.5235
     33 O2         -8.1021    0.4259   -9.1000 O.2       1 <0>        -1.0344
     34 O3         -7.5406    2.7926   -8.6753 O.2       1 <0>        -1.0338
     35 C24        -8.0508    2.0764  -11.1877 C.3       1 <0>        -0.6352
     36 H2          0.1927    0.1199    0.4974 H         1 <0>         0.0554
     37 H3         -1.2170    0.2091   -0.5856 H         1 <0>         0.0892
     38 H4         -1.4304   -0.2700    1.1153 H         1 <0>         0.0656
     39 H5          1.6278   -4.1455    3.0608 H         1 <0>         0.1711
     40 H6         -0.4567   -5.4083    3.5536 H         1 <0>         0.1843
     41 H7         -2.5064   -4.8922    2.3019 H         1 <0>         0.2044
     42 H8          1.8181   -1.5881    0.4921 H         1 <0>         0.4177
     43 H9          3.0375   -3.2315    2.7220 H         1 <0>         0.1387
     44 H10         3.4225   -0.1805    2.1052 H         1 <0>         0.1025
     45 H11         4.3172   -1.1473    3.3961 H         1 <0>         0.1126
     46 H12         5.2465   -2.6818    1.6028 H         1 <0>         0.1145
     47 H13         4.3518   -1.7150    0.3119 H         1 <0>         0.1039
     48 H14        -0.3269   -3.1864   -1.6112 H         1 <0>         0.0885
     49 H15         0.6891   -0.3428   -2.0587 H         1 <0>         0.0803
     50 H16         1.6878   -1.7269   -1.5517 H         1 <0>         0.0740
     51 H17         1.7904   -1.2875   -4.0314 H         1 <0>         0.1036
     52 H18         1.1756   -2.9129   -3.6345 H         1 <0>         0.0697
     53 H19        -2.3769   -1.6750   -4.3425 H         1 <0>         0.1157
     54 H20        -1.5398   -3.1653   -3.8372 H         1 <0>         0.0758
     55 H21        -2.5617   -2.1220   -1.8691 H         1 <0>         0.0805
     56 H22        -1.7701   -0.5714   -2.2424 H         1 <0>         0.0814
     57 H23        -0.9415   -0.1576   -8.1320 H         1 <0>         0.1443
     58 H24        -3.3293    0.6809   -9.6532 H         1 <0>         0.1173
     59 H25        -6.8112    1.0681   -7.2050 H         1 <0>         0.1112
     60 H26        -5.5276    0.4098   -5.2242 H         1 <0>         0.1033
     61 H27        -7.8876    1.2285  -11.8529 H         1 <0>         0.1159
     62 H28        -9.1120    2.3249  -11.1694 H         1 <0>         0.1015
     63 H29        -7.4828    2.9346  -11.5468 H         1 <0>         0.1160
     64 H30        -2.4313   -3.2172    0.6883 H         1 <0>         0.4432
@<TRIPOS>BOND
     1    1    2 1
     2    1   36 1
     3    1   37 1
     4    1   38 1
     5    2    3 1
     6    2   13 1
     7    3    8 ar
     8    3    4 ar
     9    4    5 ar
    10    4    9 1
    11    5    6 ar
    12    5   39 1
    13    6    7 ar
    14    6   40 1
    15    7    8 ar
    16    7   41 1
    17    8   64 1
    18    9   10 1
    19    9   42 1
    20   10   12 1
    21   10   11 1
    22   10   43 1
    23   11   12 1
    24   11   44 1
    25   11   45 1
    26   12   46 1
    27   12   47 1
    28   13   18 1
    29   13   14 1
    30   13   48 1
    31   14   15 1
    32   14   49 1
    33   14   50 1
    34   15   16 1
    35   15   51 1
    36   15   52 1
    37   16   17 1
    38   16   19 am
    39   17   18 1
    40   17   53 1
    41   17   54 1
    42   18   55 1
    43   18   56 1
    44   19   20 2
    45   19   21 1
    46   21   29 1
    47   21   22 2
    48   22   23 1
    49   22   57 1
    50   23   28 ar
    51   23   24 ar
    52   24   25 ar
    53   24   58 1
    54   25   26 ar
    55   25   31 1
    56   26   27 ar
    57   26   59 1
    58   27   28 ar
    59   27   60 1
    60   28   29 1
    61   29   30 1
    62   31   32 1
    63   32   33 2
    64   32   34 2
    65   32   35 1
    66   35   61 1
    67   35   62 1
    68   35   63 1
@<TRIPOS>MOLECULE
CHEMBL87303
   38    42     0     0     0
SMALL
USER_CHARGES

@<TRIPOS>ATOM
      1 C1         -0.0073    1.3449    0.3030 C.ar      1 <0>        -0.1127
      2 C2          1.1777    2.0787    0.2972 C.ar      1 <0>        -0.1083
      3 C3          2.3847    1.4598    0.1872 C.ar      1 <0>        -0.1041
      4 C4          2.4408    0.0597    0.0781 C.ar      1 <0>        -0.0238
      5 C5          1.2358   -0.6866    0.0844 C.ar      1 <0>        -0.0502
      6 C6          0.0082   -0.0119    0.1992 C.ar      1 <0>        -0.1031
      7 C7          1.2918   -2.0863   -0.0243 C.ar      1 <0>        -0.0904
      8 C8          2.4992   -2.7055   -0.1339 C.ar      1 <0>        -0.1165
      9 C9          3.6837   -1.9719   -0.1396 C.ar      1 <0>        -0.0899
     10 C10         3.6681   -0.6146   -0.0367 C.ar      1 <0>        -0.0709
     11 C11         4.9603    0.1606   -0.0459 C.3       1 <0>         0.2583
     12 C12         5.2021    0.8676   -1.3468 C.ar      1 <0>        -0.0527
     13 C13         4.5843    1.9177   -1.9874 C.ar      1 <0>        -0.0927
     14 C14         5.0379    2.3380   -3.2258 C.ar      1 <0>        -0.0803
     15 C15         6.1139    1.7064   -3.8245 C.ar      1 <0>        -0.1167
     16 C16         6.7480    0.6601   -3.1876 C.ar      1 <0>        -0.0415
     17 C17         6.3032    0.2366   -1.9342 C.ar      1 <0>        -0.1453
     18 C18         6.7990   -0.7941   -1.0010 C.2       1 <0>         0.5961
     19 O1          7.6610   -1.6111   -1.2599 O.2       1 <0>        -0.5000
     20 N1          6.1583   -0.6978    0.1763 N.am      1 <0>        -0.6221
     21 C19         6.2341   -1.0653    1.6002 C.3       1 <0>         0.1254
     22 C20         6.1348    0.2184    2.4730 C.3       1 <0>        -0.0892
     23 S1          5.1164    1.3058    1.3845 S.3       1 <0>        -0.2459
     24 H1         -0.9517    1.8605    0.3957 H         1 <0>         0.1259
     25 H2          1.1374    3.1547    0.3810 H         1 <0>         0.1257
     26 H3          3.2947    2.0415    0.1835 H         1 <0>         0.1291
     27 H4         -0.9180   -0.5674    0.2055 H         1 <0>         0.1298
     28 H5          0.3818   -2.6679   -0.0205 H         1 <0>         0.1323
     29 H6          2.5395   -3.7815   -0.2172 H         1 <0>         0.1290
     30 H7          4.6284   -2.4878   -0.2274 H         1 <0>         0.1231
     31 H8          3.7446    2.4138   -1.5235 H         1 <0>         0.1350
     32 H9          4.5506    3.1617   -3.7263 H         1 <0>         0.1392
     33 H10         6.4583    2.0340   -4.7943 H         1 <0>         0.1398
     34 H11         7.5872    0.1692   -3.6580 H         1 <0>         0.1380
     35 H12         5.4116   -1.7368    1.8466 H         1 <0>         0.0941
     36 H13         7.1823   -1.5658    1.7964 H         1 <0>         0.1081
     37 H14         5.6234    0.0150    3.4138 H         1 <0>         0.1203
     38 H15         7.1198    0.6508    2.6490 H         1 <0>         0.1074
@<TRIPOS>BOND
     1    1    6 ar
     2    1    2 ar
     3    1   24 1
     4    2    3 ar
     5    2   25 1
     6    3    4 ar
     7    3   26 1
     8    4   10 ar
     9    4    5 ar
    10    5    6 ar
    11    5    7 ar
    12    6   27 1
    13    7    8 ar
    14    7   28 1
    15    8    9 ar
    16    8   29 1
    17    9   10 ar
    18    9   30 1
    19   10   11 1
    20   11   20 1
    21   11   23 1
    22   11   12 1
    23   12   17 ar
    24   12   13 ar
    25   13   14 ar
    26   13   31 1
    27   14   15 ar
    28   14   32 1
    29   15   16 ar
    30   15   33 1
    31   16   17 ar
    32   16   34 1
    33   17   18 1
    34   18   19 2
    35   18   20 am
    36   20   21 1
    37   21   22 1
    38   21   35 1
    39   21   36 1
    40   22   23 1
    41   22   37 1
    42   22   38 1
@<TRIPOS>MOLECULE
CHEMBL53554
   30    33     0     0     0
SMALL
USER_CHARGES

@<TRIPOS>ATOM
      1 C1          0.0845    1.5744   -0.2463 C.ar      1 <0>        -0.1198
      2 C2          1.2969    2.2491   -0.2173 C.ar      1 <0>        -0.0995
      3 C3          2.4843    1.5487   -0.1671 C.ar      1 <0>        -0.1047
      4 C4          2.4576    0.1620   -0.1460 C.ar      1 <0>         0.0608
      5 C5          1.2357   -0.5205   -0.1751 C.ar      1 <0>         0.0642
      6 C6          0.0432    0.2091   -0.2258 C.ar      1 <0>        -0.0637
      7 N1          1.5279   -1.8401   -0.1447 N.2       1 <0>        -0.4669
      8 C7          2.8364   -2.0126   -0.0990 C.2       1 <0>         0.2581
      9 N2          3.4537   -0.8147   -0.0988 N.pl3     1 <0>        -0.4983
     10 C8          4.9402   -0.7839   -0.0537 C.3       1 <0>         0.2284
     11 S1          5.3367   -2.5045    0.4644 S.3       1 <0>        -0.1940
     12 C9          3.7349   -3.2532   -0.0482 C.3       1 <0>         0.0084
     13 C10         5.4281    0.2123    0.9663 C.ar      1 <0>        -0.1919
     14 C11         5.3317   -0.0756    2.3168 C.ar      1 <0>         0.1715
     15 C12         5.7803    0.8406    3.2533 C.ar      1 <0>        -0.1675
     16 C13         6.3242    2.0420    2.8399 C.ar      1 <0>        -0.0377
     17 C14         6.4206    2.3307    1.4918 C.ar      1 <0>        -0.1666
     18 C15         5.9783    1.4134    0.5534 C.ar      1 <0>         0.1583
     19 F1          6.0782    1.6933   -0.7645 F         1 <0>        -0.1229
     20 F2          4.7996   -1.2497    2.7212 F         1 <0>        -0.1051
     21 H1         -0.8376    2.1356   -0.2809 H         1 <0>         0.1340
     22 H2          1.3109    3.3288   -0.2345 H         1 <0>         0.1333
     23 H3          3.4268    2.0756   -0.1449 H         1 <0>         0.1180
     24 H4         -0.9063   -0.3050   -0.2483 H         1 <0>         0.1345
     25 H5          5.3558   -0.5674   -1.0379 H         1 <0>         0.1366
     26 H6          3.3787   -3.9660    0.6955 H         1 <0>         0.1442
     27 H7          3.8159   -3.7201   -1.0298 H         1 <0>         0.1331
     28 H8          5.7048    0.6163    4.3070 H         1 <0>         0.1512
     29 H9          6.6738    2.7560    3.5710 H         1 <0>         0.1523
     30 H10         6.8451    3.2701    1.1699 H         1 <0>         0.1520
@<TRIPOS>BOND
     1    1    6 ar
     2    1    2 ar
     3    1   21 1
     4    2    3 ar
     5    2   22 1
     6    3    4 ar
     7    3   23 1
     8    4    9 1
     9    4    5 ar
    10    5    6 ar
    11    5    7 1
    12    6   24 1
    13    7    8 2
    14    8   12 1
    15    8    9 1
    16    9   10 1
    17   10   11 1
    18   10   13 1
    19   10   25 1
    20   11   12 1
    21   12   26 1
    22   12   27 1
    23   13   18 ar
    24   13   14 ar
    25   14   15 ar
    26   14   20 1
    27   15   16 ar
    28   15   28 1
    29   16   17 ar
    30   16   29 1
    31   17   18 ar
    32   17   30 1
    33   18   19 1
@<TRIPOS>MOLECULE
CHEMBL53554__1
   30    33     0     0     0
SMALL
USER_CHARGES

@<TRIPOS>ATOM
      1 C1         -0.0165    1.3619    0.0095 C.ar      1 <0>        -0.1197
      2 C2          1.1659    2.0885    0.0021 C.ar      1 <0>        -0.0995
      3 C3          2.3835    1.4402   -0.0134 C.ar      1 <0>        -0.1048
      4 C4          2.4175    0.0535   -0.0210 C.ar      1 <0>         0.0607
      5 C5          1.2260   -0.6814   -0.0132 C.ar      1 <0>         0.0642
      6 C6          0.0021   -0.0041    0.0020 C.ar      1 <0>        -0.0638
      7 N1          1.5758   -1.9872   -0.0236 N.2       1 <0>        -0.4670
      8 C7          2.8914   -2.1027   -0.0375 C.2       1 <0>         0.2580
      9 N2          3.4558   -0.8792   -0.0355 N.pl3     1 <0>        -0.4983
     10 C8          4.9403   -0.7840   -0.0466 C.3       1 <0>         0.2282
     11 S1          5.4232   -2.4902   -0.5381 S.3       1 <0>        -0.1933
     12 C9          3.8438   -3.3034   -0.0553 C.3       1 <0>         0.0082
     13 C10         5.4083    0.2233   -1.0651 C.ar      1 <0>        -0.1919
     14 C11         5.3710   -0.0866   -2.4136 C.ar      1 <0>         0.1713
     15 C12         5.8014    0.8397   -3.3485 C.ar      1 <0>        -0.1676
     16 C13         6.2681    2.0734   -2.9357 C.ar      1 <0>        -0.0377
     17 C14         6.3062    2.3838   -1.5895 C.ar      1 <0>        -0.1666
     18 C15         5.8705    1.4613   -0.6531 C.ar      1 <0>         0.1582
     19 F1          5.9023    1.7673    0.6624 F         1 <0>        -0.1229
     20 F2          4.9153   -1.2926   -2.8174 F         1 <0>        -0.1048
     21 H1         -0.9625    1.8826    0.0259 H         1 <0>         0.1340
     22 H2          1.1326    3.1680    0.0082 H         1 <0>         0.1333
     23 H3          3.3025    2.0075   -0.0200 H         1 <0>         0.1180
     24 H4         -0.9245   -0.5589    0.0078 H         1 <0>         0.1345
     25 H5          5.3228   -0.5407    0.9447 H         1 <0>         0.1366
     26 H6          3.9220   -3.7575    0.9326 H         1 <0>         0.1331
     27 H7          3.5363   -4.0377   -0.7998 H         1 <0>         0.1442
     28 H8          5.7727    0.5980   -4.4007 H         1 <0>         0.1512
     29 H9          6.6035    2.7953   -3.6656 H         1 <0>         0.1523
     30 H10         6.6717    3.3479   -1.2679 H         1 <0>         0.1520
@<TRIPOS>BOND
     1    1    6 ar
     2    1    2 ar
     3    1   21 1
     4    2    3 ar
     5    2   22 1
     6    3    4 ar
     7    3   23 1
     8    4    9 1
     9    4    5 ar
    10    5    6 ar
    11    5    7 1
    12    6   24 1
    13    7    8 2
    14    8   12 1
    15    8    9 1
    16    9   10 1
    17   10   11 1
    18   10   13 1
    19   10   25 1
    20   11   12 1
    21   12   26 1
    22   12   27 1
    23   13   18 ar
    24   13   14 ar
    25   14   15 ar
    26   14   20 1
    27   15   16 ar
    28   15   28 1
    29   16   17 ar
    30   16   29 1
    31   17   18 ar
    32   17   30 1
    33   18   19 1
@<TRIPOS>MOLECULE
CHEMBL294179
   26    27     0     0     0
SMALL
USER_CHARGES

@<TRIPOS>ATOM
      1 C1         -0.0176    1.3772   -0.0087 C.ar      1 <0>        -0.0193
      2 C2          1.1636    2.0963   -0.0083 C.ar      1 <0>        -0.2019
      3 C3          2.3839    1.4368   -0.0128 C.ar      1 <0>         0.2847
      4 C4          2.4168    0.0325   -0.0172 C.ar      1 <0>        -0.0983
      5 C5          1.2102   -0.6872   -0.0171 C.ar      1 <0>        -0.0139
      6 C6          0.0015   -0.0043   -0.0131 C.ar      1 <0>        -0.1837
      7 S1          1.2309   -2.4491   -0.0233 S.3       1 <0>         0.0344
      8 C7         -0.4657   -2.8959    0.1390 C.ar      1 <0>        -0.1262
      9 C8         -1.2236   -3.1738   -0.9920 C.ar      1 <0>        -0.0492
     10 C9         -2.5541   -3.5245   -0.8615 C.ar      1 <0>        -0.0333
     11 C10        -3.1317   -3.5985    0.3940 C.ar      1 <0>        -0.0708
     12 C11        -2.3794   -3.3222    1.5223 C.ar      1 <0>        -0.0331
     13 C12        -1.0470   -2.9766    1.3985 C.ar      1 <0>        -0.0500
     14 Cl1        -3.1084   -3.4158    3.0950 Cl        1 <0>        -0.0427
     15 Cl2        -3.5017   -3.8720   -2.2739 Cl        1 <0>        -0.0426
     16 C13         3.6703   -0.6600   -0.0223 C.1       1 <0>         0.2505
     17 N1          4.6646   -1.2093   -0.0263 N.1       1 <0>        -0.4093
     18 N2          3.5697    2.1628   -0.0133 N.pl3     1 <0>        -0.8606
     19 H1         -0.9627    1.8998   -0.0010 H         1 <0>         0.1347
     20 H2          1.1359    3.1760   -0.0049 H         1 <0>         0.1357
     21 H3         -0.9275   -0.5550   -0.0131 H         1 <0>         0.1274
     22 H4         -0.7735   -3.1156   -1.9720 H         1 <0>         0.1529
     23 H5         -4.1718   -3.8721    0.4934 H         1 <0>         0.1522
     24 H6         -0.4592   -2.7655    2.2796 H         1 <0>         0.1519
     25 H7          3.5447    3.1325   -0.0105 H         1 <0>         0.4085
     26 H8          4.4220    1.6996   -0.0164 H         1 <0>         0.4020
@<TRIPOS>BOND
     1    1    6 ar
     2    1    2 ar
     3    1   19 1
     4    2    3 ar
     5    2   20 1
     6    3    4 ar
     7    3   18 1
     8    4    5 ar
     9    4   16 1
    10    5    6 ar
    11    5    7 1
    12    6   21 1
    13    7    8 1
    14    8   13 ar
    15    8    9 ar
    16    9   10 ar
    17    9   22 1
    18   10   11 ar
    19   10   15 1
    20   11   12 ar
    21   11   23 1
    22   12   13 ar
    23   12   14 1
    24   13   24 1
    25   16   17 3
    26   18   25 1
    27   18   26 1
@<TRIPOS>MOLECULE
CHEMBL331237
   39    42     0     0     0
SMALL
USER_CHARGES

@<TRIPOS>ATOM
      1 C1         -0.0178    1.4608    0.0101 C.3       1 <0>         0.1224
      2 N1          0.0021   -0.0041    0.0020 N.pl3     1 <0>        -0.3937
      3 C2         -1.1811   -0.6985    0.0039 C.ar      1 <0>         0.4502
      4 C3         -1.0956   -2.0790   -0.0052 C.ar      1 <0>        -0.2894
      5 C4          0.1617   -2.8229   -0.0165 C.2       1 <0>        -0.1638
      6 C5         -0.2181   -4.1146   -0.0225 C.2       1 <0>         0.1003
      7 N2         -1.6008   -4.1990   -0.0155 N.pl3     1 <0>        -0.4482
      8 C6         -2.1630   -2.9559   -0.0045 C.ar      1 <0>         0.3809
      9 N3         -3.3618   -2.3641    0.0060 N.ar      1 <0>        -0.5471
     10 C7         -3.4440   -1.0459    0.0144 C.ar      1 <0>         0.3618
     11 N4         -2.4137   -0.2052    0.0138 N.ar      1 <0>        -0.5778
     12 C8         -2.3572   -5.4536   -0.0194 C.3       1 <0>         0.3083
     13 H1         -3.2605   -5.3531    0.5823 H         1 <0>         0.1228
     14 C9         -2.7168   -5.8603   -1.4656 C.3       1 <0>         0.0779
     15 H2         -2.0162   -5.4162   -2.1727 H         1 <0>         0.0858
     16 C10        -2.5844   -7.3997   -1.4667 C.3       1 <0>         0.0474
     17 H3         -1.8183   -7.7166   -2.1743 H         1 <0>         0.0862
     18 C11        -2.1605   -7.7410   -0.0210 C.3       1 <0>         0.0496
     19 H4         -3.0335   -7.9932    0.5810 H         1 <0>         0.0999
     20 O1         -1.5395   -6.5352    0.4781 O.3       1 <0>        -0.3463
     21 C12        -1.1605   -8.8990   -0.0185 C.3       1 <0>         0.0825
     22 O2         -0.8707   -9.2751    1.3293 O.3       1 <0>        -0.5633
     23 O3         -3.8378   -8.0098   -1.7811 O.3       1 <0>        -0.5386
     24 O4         -4.0557   -5.4699   -1.7773 O.3       1 <0>        -0.5259
     25 C13         1.3729   -1.9823   -0.0181 C.2       1 <0>         0.4530
     26 N5          1.2300   -0.6806   -0.0133 N.2       1 <0>        -0.3424
     27 N6          2.6386   -2.5588   -0.0276 N.pl3     1 <0>        -0.8278
     28 H5          1.0048    1.8381    0.0023 H         1 <0>         0.0890
     29 H6         -0.5450    1.8219   -0.8730 H         1 <0>         0.0713
     30 H7         -0.5280    1.8123    0.9069 H         1 <0>         0.0715
     31 H8          0.4550   -4.9591   -0.0320 H         1 <0>         0.1861
     32 H9         -4.4335   -0.6133    0.0228 H         1 <0>         0.2008
     33 H10        -1.5883   -9.7496   -0.5491 H         1 <0>         0.0669
     34 H11        -0.2414   -8.5864   -0.5141 H         1 <0>         0.0601
     35 H12        -0.2418  -10.0056    1.4072 H         1 <0>         0.3865
     36 H13        -3.8121   -8.9764   -1.7956 H         1 <0>         0.3871
     37 H14        -4.3341   -5.7010   -2.6740 H         1 <0>         0.3908
     38 H15         2.7318   -3.5243   -0.0333 H         1 <0>         0.4144
     39 H16         3.4282   -1.9953   -0.0286 H         1 <0>         0.4106
@<TRIPOS>BOND
     1    1    2 1
     2    1   28 1
     3    1   29 1
     4    1   30 1
     5    2   26 1
     6    2    3 1
     7    3   11 ar
     8    3    4 ar
     9    4    8 ar
    10    4    5 1
    11    5    6 2
    12    5   25 1
    13    6    7 1
    14    6   31 1
    15    7    8 1
    16    7   12 1
    17    8    9 ar
    18    9   10 ar
    19   10   11 ar
    20   10   32 1
    21   12   13 1
    22   12   20 1
    23   12   14 1
    24   14   15 1
    25   14   16 1
    26   14   24 1
    27   16   17 1
    28   16   18 1
    29   16   23 1
    30   18   19 1
    31   18   20 1
    32   18   21 1
    33   21   22 1
    34   21   33 1
    35   21   34 1
    36   22   35 1
    37   23   36 1
    38   24   37 1
    39   25   26 2
    40   25   27 1
    41   27   38 1
    42   27   39 1
@<TRIPOS>MOLECULE
CHEMBL305996
   37    39     0     0     0
SMALL
USER_CHARGES

@<TRIPOS>ATOM
      1 C1          1.0533   -0.7545    0.3862 C.3       1 <0>         0.0178
      2 O1         -0.1029    0.0086    0.0355 O.3       1 <0>        -0.3059
      3 C2         -1.2739   -0.6693   -0.0932 C.ar      1 <0>         0.1776
      4 C3         -2.0160   -1.0042    1.0347 C.ar      1 <0>        -0.0896
      5 C4         -3.2066   -1.6934    0.8978 C.ar      1 <0>        -0.0357
      6 C5         -3.6662   -2.0535   -0.3549 C.ar      1 <0>        -0.1508
      7 C6         -2.9307   -1.7224   -1.4851 C.ar      1 <0>         0.2150
      8 C7         -1.7367   -1.0244   -1.3439 C.ar      1 <0>        -0.1689
      9 C8         -0.9647   -0.6753   -2.5952 C.3       1 <0>         0.3210
     10 N1         -1.5482   -1.1015   -3.8787 N.am      1 <0>        -0.7059
     11 C9         -2.7168   -1.7681   -3.8783 C.2       1 <0>         0.7190
     12 O2         -3.1869   -2.1139   -4.9450 O.2       1 <0>        -0.5486
     13 N2         -3.3804   -2.0790   -2.7574 N.am      1 <0>        -0.6546
     14 C10         0.3751   -1.2746   -2.4842 C.1       1 <0>        -0.1938
     15 C11         1.4437   -1.7527   -2.3957 C.1       1 <0>        -0.0428
     16 C12         2.7472   -2.3357   -2.2877 C.ar      1 <0>        -0.0549
     17 C13         3.1014   -3.0822   -1.1580 C.ar      1 <0>        -0.0415
     18 C14         4.3730   -3.6249   -1.1027 C.ar      1 <0>        -0.1676
     19 C15         5.2453   -3.4144   -2.1555 C.ar      1 <0>         0.1169
     20 N3          4.8839   -2.7063   -3.2080 N.ar      1 <0>        -0.4776
     21 C16         3.6833   -2.1741   -3.3093 C.ar      1 <0>         0.1279
     22 C17        -0.7944    0.8447   -2.6359 C.3       1 <0>         0.4454
     23 F1          0.0469    1.2478   -1.5934 F         1 <0>        -0.1390
     24 F2         -0.2310    1.2182   -3.8608 F         1 <0>        -0.1750
     25 F3         -2.0434    1.4580   -2.4908 F         1 <0>        -0.1682
     26 Cl1        -1.4472   -0.5577    2.6129 Cl        1 <0>        -0.0375
     27 H1          1.9412   -0.1278    0.3027 H         1 <0>         0.1036
     28 H2          0.9557   -1.1117    1.4113 H         1 <0>         0.0588
     29 H3          1.1449   -1.6060   -0.2881 H         1 <0>         0.0548
     30 H4         -3.7809   -1.9522    1.7751 H         1 <0>         0.1547
     31 H5         -4.5968   -2.5924   -0.4547 H         1 <0>         0.1540
     32 H6         -1.0957   -0.9039   -4.7136 H         1 <0>         0.4409
     33 H7         -4.2176   -2.5628   -2.8340 H         1 <0>         0.4348
     34 H8          2.4003   -3.2305   -0.3500 H         1 <0>         0.1430
     35 H9          4.6814   -4.2064   -0.2464 H         1 <0>         0.1469
     36 H10         6.2386   -3.8365   -2.1149 H         1 <0>         0.1654
     37 H11         3.4226   -1.6044   -4.1890 H         1 <0>         0.1604
@<TRIPOS>BOND
     1    1    2 1
     2    1   27 1
     3    1   28 1
     4    1   29 1
     5    2    3 1
     6    3    8 ar
     7    3    4 ar
     8    4    5 ar
     9    4   26 1
    10    5    6 ar
    11    5   30 1
    12    6    7 ar
    13    6   31 1
    14    7   13 1
    15    7    8 ar
    16    8    9 1
    17    9   10 1
    18    9   14 1
    19    9   22 1
    20   10   11 am
    21   10   32 1
    22   11   12 2
    23   11   13 am
    24   13   33 1
    25   14   15 3
    26   15   16 1
    27   16   21 ar
    28   16   17 ar
    29   17   18 ar
    30   17   34 1
    31   18   19 ar
    32   18   35 1
    33   19   20 ar
    34   19   36 1
    35   20   21 ar
    36   21   37 1
    37   22   23 1
    38   22   24 1
    39   22   25 1
@<TRIPOS>MOLECULE
CHEMBL305996__1
   37    39     0     0     0
SMALL
USER_CHARGES

@<TRIPOS>ATOM
      1 C1         -0.2838    0.8657    0.6010 C.3       1 <0>         0.0236
      2 O1         -0.2114   -0.5087    0.2168 O.3       1 <0>        -0.3072
      3 C2         -1.3887   -1.1743    0.0811 C.ar      1 <0>         0.1787
      4 C3         -2.0490   -1.6640    1.2032 C.ar      1 <0>        -0.0902
      5 C4         -3.2464   -2.3398    1.0593 C.ar      1 <0>        -0.0355
      6 C5         -3.7937   -2.5335   -0.1950 C.ar      1 <0>        -0.1511
      7 C6         -3.1401   -2.0475   -1.3195 C.ar      1 <0>         0.2153
      8 C7         -1.9390   -1.3634   -1.1703 C.ar      1 <0>        -0.1694
      9 C8         -1.2577   -0.8429   -2.4147 C.3       1 <0>         0.3211
     10 N1         -1.9307   -1.0992   -3.6994 N.am      1 <0>        -0.7060
     11 C9         -3.0964   -1.7708   -3.7063 C.2       1 <0>         0.7188
     12 O2         -3.6410   -1.9754   -4.7740 O.2       1 <0>        -0.5486
     13 N2         -3.6789   -2.2350   -2.5933 N.am      1 <0>        -0.6546
     14 C10        -1.0968    0.6130   -2.2689 C.1       1 <0>        -0.1944
     15 C11        -0.9686    1.7742   -2.1527 C.1       1 <0>        -0.0422
     16 C12        -0.8121    3.1906   -2.0110 C.ar      1 <0>        -0.0559
     17 C13        -1.2576    3.8436   -0.8560 C.ar      1 <0>        -0.0410
     18 C14        -1.0824    5.2133   -0.7681 C.ar      1 <0>        -0.1684
     19 C15        -0.4783    5.8872   -1.8143 C.ar      1 <0>         0.1174
     20 N3         -0.0682    5.2453   -2.8911 N.ar      1 <0>        -0.4787
     21 C16        -0.2078    3.9418   -3.0192 C.ar      1 <0>         0.1331
     22 C17         0.1396   -1.4626   -2.4819 C.3       1 <0>         0.4454
     23 F1          0.0386   -2.8536   -2.3720 F         1 <0>        -0.1681
     24 F2          0.7373   -1.1335   -3.7033 F         1 <0>        -0.1753
     25 F3          0.9205   -0.9673   -1.4321 F         1 <0>        -0.1390
     26 Cl1        -1.3697   -1.4271    2.7831 Cl        1 <0>        -0.0380
     27 H1          0.7047    1.3180    0.5205 H         1 <0>         0.1011
     28 H2         -0.9780    1.3904   -0.0554 H         1 <0>         0.0538
     29 H3         -0.6332    0.9371    1.6310 H         1 <0>         0.0570
     30 H4         -3.7570   -2.7190    1.9321 H         1 <0>         0.1545
     31 H5         -4.7291   -3.0629   -0.3005 H         1 <0>         0.1540
     32 H6         -1.5385   -0.7875   -4.5301 H         1 <0>         0.4409
     33 H7         -4.5195   -2.7120   -2.6750 H         1 <0>         0.4347
     34 H8         -1.7265    3.2926   -0.0541 H         1 <0>         0.1430
     35 H9         -1.4141    5.7507    0.1080 H         1 <0>         0.1466
     36 H10        -0.3406    6.9563   -1.7486 H         1 <0>         0.1648
     37 H11         0.1449    3.4509   -3.9142 H         1 <0>         0.1600
@<TRIPOS>BOND
     1    1    2 1
     2    1   27 1
     3    1   28 1
     4    1   29 1
     5    2    3 1
     6    3    8 ar
     7    3    4 ar
     8    4    5 ar
     9    4   26 1
    10    5    6 ar
    11    5   30 1
    12    6    7 ar
    13    6   31 1
    14    7   13 1
    15    7    8 ar
    16    8    9 1
    17    9   10 1
    18    9   14 1
    19    9   22 1
    20   10   11 am
    21   10   32 1
    22   11   12 2
    23   11   13 am
    24   13   33 1
    25   14   15 3
    26   15   16 1
    27   16   21 ar
    28   16   17 ar
    29   17   18 ar
    30   17   34 1
    31   18   19 ar
    32   18   35 1
    33   19   20 ar
    34   19   36 1
    35   20   21 ar
    36   21   37 1
    37   22   23 1
    38   22   24 1
    39   22   25 1
@<TRIPOS>MOLECULE
CHEMBL350396
   46    49     0     0     0
SMALL
USER_CHARGES

@<TRIPOS>ATOM
      1 C1          0.1198   -0.7311    1.2799 C.ar      1 <0>        -0.0967
      2 C2          0.6140    0.4161    0.6880 C.ar      1 <0>        -0.0936
      3 C3          1.9414    0.4883    0.2954 C.ar      1 <0>        -0.0465
      4 C4          2.7779   -0.5975    0.4987 C.ar      1 <0>        -0.1370
      5 C5          2.2741   -1.7670    1.1028 C.ar      1 <0>        -0.1443
      6 C6          0.9448   -1.8250    1.4896 C.ar      1 <0>        -0.0434
      7 C7          3.4101   -2.7106    1.1669 C.2       1 <0>         0.5736
      8 O1          3.3727   -3.8349    1.6245 O.2       1 <0>        -0.4604
      9 N1          4.4921   -2.1157    0.6331 N.am      1 <0>        -0.5797
     10 C8          4.2030   -0.8698    0.2162 C.2       1 <0>         0.5672
     11 O2          4.9823   -0.0981   -0.3054 O.2       1 <0>        -0.4275
     12 C9          5.8118   -2.7421    0.5209 C.3       1 <0>         0.1167
     13 C10         5.8681   -3.5884   -0.7524 C.3       1 <0>         0.0410
     14 O3          5.7115   -2.7427   -1.8937 O.3       1 <0>        -0.2597
     15 C11         5.6330   -3.3461   -3.0960 C.2       1 <0>         0.4901
     16 S1          5.8488   -5.0400   -3.2194 S.2       1 <0>        -0.5174
     17 N2          5.3845   -2.6161   -4.2014 N.am      1 <0>        -0.4664
     18 C12         5.2226   -3.2523   -5.4395 C.ar      1 <0>         0.1064
     19 C13         6.0557   -2.9285   -6.5019 C.ar      1 <0>        -0.0874
     20 C14         5.8941   -3.5568   -7.7211 C.ar      1 <0>        -0.0885
     21 C15         4.9025   -4.5083   -7.8844 C.ar      1 <0>        -0.0139
     22 C16         4.0709   -4.8328   -6.8270 C.ar      1 <0>        -0.0912
     23 C17         4.2325   -4.2117   -5.6041 C.ar      1 <0>        -0.0477
     24 Cl1         4.7012   -5.2955   -9.4185 Cl        1 <0>        -0.0501
     25 C18         5.2917   -1.2743   -4.1160 C.2       1 <0>         0.5908
     26 O4          5.5077   -0.7156   -3.0568 O.2       1 <0>        -0.4205
     27 C19         4.9312   -0.4887   -5.2980 C.2       1 <0>        -0.3000
     28 C20         4.6514    0.8669   -5.3952 C.2       1 <0>        -0.0345
     29 C21         4.3411    1.3232   -6.6534 C.2       1 <0>        -0.1941
     30 C22         4.3286    0.4465   -7.6882 C.2       1 <0>        -0.2418
     31 S2          4.7448   -1.0230   -6.9885 S.3       1 <0>         0.2571
     32 H1         -0.9153   -0.7738    1.5853 H         1 <0>         0.1437
     33 H2         -0.0388    1.2618    0.5299 H         1 <0>         0.1433
     34 H3          2.3219    1.3869   -0.1673 H         1 <0>         0.1419
     35 H4          0.5533   -2.7186    1.9529 H         1 <0>         0.1432
     36 H5          6.5785   -1.9686    0.4773 H         1 <0>         0.1151
     37 H6          5.9867   -3.3786    1.3883 H         1 <0>         0.1297
     38 H7          6.8297   -4.0985   -0.8074 H         1 <0>         0.1145
     39 H8          5.0659   -4.3262   -0.7341 H         1 <0>         0.1001
     40 H9          6.8292   -2.1855   -6.3752 H         1 <0>         0.1479
     41 H10         6.5419   -3.3052   -8.5479 H         1 <0>         0.1528
     42 H11         3.2976   -5.5754   -6.9571 H         1 <0>         0.1499
     43 H12         3.5864   -4.4689   -4.7778 H         1 <0>         0.1426
     44 H13         4.6756    1.5215   -4.5365 H         1 <0>         0.1510
     45 H14         4.1101    2.3656   -6.8162 H         1 <0>         0.1376
     46 H15         4.1061    0.6480   -8.7257 H         1 <0>         0.1862
@<TRIPOS>BOND
     1    1    6 ar
     2    1    2 ar
     3    1   32 1
     4    2    3 ar
     5    2   33 1
     6    3    4 ar
     7    3   34 1
     8    4   10 1
     9    4    5 ar
    10    5    6 ar
    11    5    7 1
    12    6   35 1
    13    7    8 2
    14    7    9 am
    15    9   10 am
    16    9   12 1
    17   10   11 2
    18   12   13 1
    19   12   36 1
    20   12   37 1
    21   13   14 1
    22   13   38 1
    23   13   39 1
    24   14   15 1
    25   15   16 2
    26   15   17 1
    27   17   18 1
    28   17   25 am
    29   18   23 ar
    30   18   19 ar
    31   19   20 ar
    32   19   40 1
    33   20   21 ar
    34   20   41 1
    35   21   22 ar
    36   21   24 1
    37   22   23 ar
    38   22   42 1
    39   23   43 1
    40   25   26 2
    41   25   27 1
    42   27   31 1
    43   27   28 2
    44   28   29 1
    45   28   44 1
    46   29   30 2
    47   29   45 1
    48   30   31 1
    49   30   46 1
@<TRIPOS>MOLECULE
CHEMBL322698
   35    38     0     0     0
SMALL
USER_CHARGES

@<TRIPOS>ATOM
      1 C1         -0.0166    1.3724    0.0096 C.ar      1 <0>        -0.1029
      2 C2          1.1689    2.0910    0.0021 C.ar      1 <0>        -0.1134
      3 C3          2.3826    1.4344   -0.0135 C.ar      1 <0>        -0.1106
      4 C4          2.4213    0.0470   -0.0218 C.ar      1 <0>         0.0539
      5 C5          1.2250   -0.6863   -0.0138 C.ar      1 <0>         0.1452
      6 C6          0.0021   -0.0041    0.0020 C.ar      1 <0>        -0.0900
      7 N1          1.2408   -2.0453   -0.0227 N.2       1 <0>        -0.5707
      8 C7          2.3718   -2.7160   -0.0385 C.2       1 <0>         0.4875
      9 C8          3.6467   -1.9989   -0.0468 C.2       1 <0>        -0.0405
     10 N2          3.6433   -0.6192   -0.0384 N.pl3     1 <0>        -0.3479
     11 C9          4.9291   -0.1861   -0.0491 C.2       1 <0>         0.0118
     12 C10         5.7542   -1.2612   -0.0641 C.2       1 <0>        -0.1744
     13 C11         4.9605   -2.4132   -0.0633 C.2       1 <0>        -0.1338
     14 N3          2.3559   -4.0977   -0.0467 N.pl3     1 <0>        -0.4889
     15 N4          1.1347   -4.7843   -0.0383 N.am      1 <0>        -0.4888
     16 C12         1.1193   -6.1320   -0.0464 C.2       1 <0>         0.5776
     17 O1          2.1645   -6.7515   -0.0609 O.2       1 <0>        -0.5250
     18 C13        -0.1721   -6.8580   -0.0375 C.ar      1 <0>         0.0324
     19 C14        -0.1904   -8.2523   -0.0400 C.ar      1 <0>         0.1197
     20 N5         -1.3442   -8.8951   -0.0321 N.ar      1 <0>        -0.4359
     21 C15        -2.4791   -8.2184   -0.0218 C.ar      1 <0>         0.0821
     22 C16        -2.4643   -6.8312   -0.0192 C.ar      1 <0>         0.0550
     23 N6         -1.3173   -6.1818   -0.0215 N.ar      1 <0>        -0.4122
     24 H1         -0.9611    1.8959    0.0260 H         1 <0>         0.1350
     25 H2          1.1424    3.1707    0.0082 H         1 <0>         0.1342
     26 H3          3.3025    2.0002   -0.0196 H         1 <0>         0.1307
     27 H4         -0.9255   -0.5573    0.0083 H         1 <0>         0.1409
     28 H5          5.2437    0.8470   -0.0466 H         1 <0>         0.1755
     29 H6          6.8338   -1.2335   -0.0758 H         1 <0>         0.1562
     30 H7          5.3114   -3.4346   -0.0730 H         1 <0>         0.1526
     31 H8          3.1903   -4.5923   -0.0584 H         1 <0>         0.4473
     32 H9          0.3004   -4.2898   -0.0267 H         1 <0>         0.4461
     33 H10         0.7371   -8.8056   -0.0488 H         1 <0>         0.1865
     34 H11        -3.4210   -8.7467   -0.0157 H         1 <0>         0.1817
     35 H12        -3.3943   -6.2822   -0.0108 H         1 <0>         0.1831
@<TRIPOS>BOND
     1    1    6 ar
     2    1    2 ar
     3    1   24 1
     4    2    3 ar
     5    2   25 1
     6    3    4 ar
     7    3   26 1
     8    4   10 1
     9    4    5 ar
    10    5    6 ar
    11    5    7 1
    12    6   27 1
    13    7    8 2
    14    8    9 1
    15    8   14 1
    16    9   13 2
    17    9   10 1
    18   10   11 1
    19   11   12 2
    20   11   28 1
    21   12   13 1
    22   12   29 1
    23   13   30 1
    24   14   15 1
    25   14   31 1
    26   15   16 am
    27   15   32 1
    28   16   17 2
    29   16   18 1
    30   18   23 ar
    31   18   19 ar
    32   19   20 ar
    33   19   33 1
    34   20   21 ar
    35   21   22 ar
    36   21   34 1
    37   22   23 ar
    38   22   35 1
@<TRIPOS>MOLECULE
CHEMBL223228
   30    32     0     0     0
SMALL
USER_CHARGES

@<TRIPOS>ATOM
      1 C1         -0.0167    1.3794    0.0096 C.ar      1 <0>        -0.0472
      2 C2          1.1694    2.0895    0.0021 C.ar      1 <0>        -0.1344
      3 C3          2.3774    1.4112   -0.0095 C.ar      1 <0>         0.1916
      4 C4          2.3932    0.0207   -0.0327 C.ar      1 <0>        -0.1788
      5 C5          1.2087   -0.6839   -0.0200 C.ar      1 <0>        -0.0282
      6 C6          0.0021   -0.0041    0.0020 C.ar      1 <0>        -0.0604
      7 Cl1        -1.4906   -0.8902    0.0208 Cl        1 <0>        -0.0482
      8 C7          3.7181   -0.6968   -0.0911 C.3       1 <0>         0.2846
      9 O1          4.7197    0.1214    0.5191 O.3       1 <0>        -0.3079
     10 C8          4.7428    1.4259    0.1890 C.2       1 <0>         0.6595
     11 O2          5.8081    1.9978    0.0682 O.2       1 <0>        -0.4692
     12 N1          3.5943    2.1036   -0.0087 N.am      1 <0>        -0.6583
     13 C9          3.6183   -1.9747    0.6326 C.1       1 <0>        -0.2259
     14 C10         3.5386   -2.9939    1.2097 C.1       1 <0>        -0.0161
     15 C11         3.4387   -4.2719    1.9334 C.3       1 <0>        -0.0739
     16 C12         4.2228   -4.4068    3.2403 C.3       1 <0>        -0.1553
     17 C13         4.6888   -5.1523    1.9882 C.3       1 <0>        -0.1565
     18 C14         4.0929   -0.9613   -1.5508 C.3       1 <0>         0.4425
     19 F1          4.1917    0.2551   -2.2346 F         1 <0>        -0.1685
     20 F2          5.3222   -1.6270   -1.6033 F         1 <0>        -0.1583
     21 F3          3.1074   -1.7539   -2.1490 F         1 <0>        -0.1572
     22 H1         -0.9597    1.9055    0.0260 H         1 <0>         0.1526
     23 H2          1.1544    3.1694    0.0050 H         1 <0>         0.1542
     24 H3          1.2213   -1.7638   -0.0270 H         1 <0>         0.1494
     25 H4          3.6108    3.0632   -0.1495 H         1 <0>         0.4395
     26 H5          2.4726   -4.7728    1.8717 H         1 <0>         0.1410
     27 H6          4.8126   -3.5493    3.5642 H         1 <0>         0.1025
     28 H7          3.7725   -4.9965    4.0388 H         1 <0>         0.1119
     29 H8          4.5451   -6.2325    1.9628 H         1 <0>         0.1120
     30 H9          5.5852   -4.7853    1.4883 H         1 <0>         0.1031
@<TRIPOS>BOND
     1    1    6 ar
     2    1    2 ar
     3    1   22 1
     4    2    3 ar
     5    2   23 1
     6    3   12 1
     7    3    4 ar
     8    4    5 ar
     9    4    8 1
    10    5    6 ar
    11    5   24 1
    12    6    7 1
    13    8    9 1
    14    8   13 1
    15    8   18 1
    16    9   10 1
    17   10   11 2
    18   10   12 am
    19   12   25 1
    20   13   14 3
    21   14   15 1
    22   15   17 1
    23   15   16 1
    24   15   26 1
    25   16   17 1
    26   16   27 1
    27   16   28 1
    28   17   29 1
    29   17   30 1
    30   18   19 1
    31   18   20 1
    32   18   21 1
@<TRIPOS>MOLECULE
CHEMBL123636
   39    41     0     0     0
SMALL
USER_CHARGES

@<TRIPOS>ATOM
      1 C1         -0.0187    1.5258    0.0104 C.3       1 <0>        -0.1493
      2 C2          0.0021   -0.0041    0.0020 C.3       1 <0>        -0.0705
      3 C3          0.7074   -0.4901   -1.2379 C.2       1 <0>        -0.1327
      4 C4         -0.0010   -0.6214   -2.4413 C.2       1 <0>        -0.1274
      5 C5          0.6543   -1.0633   -3.5575 C.2       1 <0>         0.0989
      6 C6          2.0286   -1.3768   -3.4708 C.2       1 <0>         0.5137
      7 N1          2.6767   -1.2386   -2.2984 N.am      1 <0>        -0.5910
      8 C7          2.0242   -0.7940   -1.1909 C.2       1 <0>         0.0937
      9 C8          2.7767   -0.6437    0.1061 C.3       1 <0>        -0.1206
     10 O1          2.6283   -1.7729   -4.4575 O.2       1 <0>        -0.5543
     11 N2         -0.0295   -1.2038   -4.7716 N.pl3     1 <0>        -0.7299
     12 C9          0.6810   -1.6780   -5.9618 C.3       1 <0>         0.2154
     13 C10        -0.2742   -1.7397   -7.1257 C.2       1 <0>         0.0251
     14 C11        -0.5040   -0.7364   -7.9836 C.2       1 <0>        -0.1712
     15 C12        -1.4945   -1.2379   -8.9438 C.ar      1 <0>        -0.1158
     16 C13        -2.1352   -0.6937  -10.0576 C.ar      1 <0>         0.0160
     17 C14        -3.0408   -1.4570  -10.7625 C.ar      1 <0>        -0.1138
     18 C15        -3.3148   -2.7589  -10.3683 C.ar      1 <0>        -0.0705
     19 C16        -2.6886   -3.3080   -9.2691 C.ar      1 <0>        -0.0228
     20 C17        -1.7713   -2.5552   -8.5444 C.ar      1 <0>         0.0765
     21 O2         -1.0152   -2.8114   -7.4575 O.3       1 <0>        -0.1723
     22 Cl1        -3.0444   -4.9386   -8.7914 Cl        1 <0>        -0.0443
     23 Cl2        -1.7942    0.9351  -10.5521 Cl        1 <0>        -0.0469
     24 H1          1.0039    1.9031    0.0027 H         1 <0>         0.0547
     25 H2         -0.5459    1.8868   -0.8726 H         1 <0>         0.0561
     26 H3         -0.5289    1.8773    0.9072 H         1 <0>         0.0583
     27 H4          0.5293   -0.3651    0.8851 H         1 <0>         0.0748
     28 H5         -1.0205   -0.3814    0.0098 H         1 <0>         0.0739
     29 H6         -1.0519   -0.3766   -2.4859 H         1 <0>         0.1311
     30 H7          2.7255   -1.5774    0.6662 H         1 <0>         0.0830
     31 H8          3.8188   -0.4029   -0.1043 H         1 <0>         0.0723
     32 H9          2.3303    0.1579    0.6945 H         1 <0>         0.0914
     33 H10         3.6207   -1.4552   -2.2441 H         1 <0>         0.4167
     34 H11        -0.9735   -0.9872   -4.8244 H         1 <0>         0.4069
     35 H12         1.4954   -0.9924   -6.1960 H         1 <0>         0.1055
     36 H13         1.0862   -2.6718   -5.7712 H         1 <0>         0.0904
     37 H14        -0.0518    0.2443   -7.9708 H         1 <0>         0.1681
     38 H15        -3.5394   -1.0400  -11.6250 H         1 <0>         0.1530
     39 H16        -4.0261   -3.3481  -10.9279 H         1 <0>         0.1579
@<TRIPOS>BOND
     1    1    2 1
     2    1   24 1
     3    1   25 1
     4    1   26 1
     5    2   27 1
     6    2   28 1
     7    2    3 1
     8    3    8 2
     9    3    4 1
    10    4   29 1
    11    4    5 2
    12    5    6 1
    13    5   11 1
    14    6   10 2
    15    6    7 am
    16    7   33 1
    17    7    8 1
    18    8    9 1
    19    9   30 1
    20    9   31 1
    21    9   32 1
    22   11   12 1
    23   11   34 1
    24   12   13 1
    25   12   35 1
    26   12   36 1
    27   13   21 1
    28   13   14 2
    29   14   15 1
    30   14   37 1
    31   15   20 ar
    32   15   16 ar
    33   16   17 ar
    34   16   23 1
    35   17   18 ar
    36   17   38 1
    37   18   19 ar
    38   18   39 1
    39   19   20 ar
    40   19   22 1
    41   20   21 1
@<TRIPOS>MOLECULE
CHEMBL317180
   48    52     0     0     0
SMALL
USER_CHARGES

@<TRIPOS>ATOM
      1 C1         -0.0187    1.5258    0.0104 C.3       1 <0>        -0.1715
      2 C2          0.0021   -0.0041    0.0020 C.3       1 <0>         0.1353
      3 N1         -1.3723   -0.5112    0.0124 N.pl3     1 <0>        -0.5772
      4 C3         -2.0241   -0.7562    1.2210 C.ar      1 <0>         0.3805
      5 C4         -3.1924   -0.0728    1.5496 C.ar      1 <0>         0.0975
      6 C5         -3.8444   -0.3876    2.7377 C.ar      1 <0>        -0.0728
      7 C6         -3.2873   -1.3499    3.5676 C.ar      1 <0>        -0.1352
      8 C7         -2.1082   -1.9638    3.1927 C.ar      1 <0>         0.1839
      9 N2         -1.5189   -1.6578    2.0516 N.ar      1 <0>        -0.4679
     10 Cl1        -1.3916   -3.1524    4.2354 Cl        1 <0>        -0.0158
     11 N3         -3.6954    0.9509    0.7499 N.am      1 <0>        -0.5372
     12 C8         -3.7342    0.9793   -0.5741 C.2       1 <0>         0.5760
     13 O1         -4.2310    1.9594   -1.0944 O.2       1 <0>        -0.5154
     14 C9         -3.2291   -0.0691   -1.4660 C.ar      1 <0>        -0.1965
     15 C10        -2.0401   -0.7469   -1.1771 C.ar      1 <0>         0.4221
     16 N4         -1.5584   -1.6316   -2.0382 N.ar      1 <0>        -0.4927
     17 C11        -2.1937   -1.9343   -3.1534 C.ar      1 <0>         0.1764
     18 C12        -3.3989   -1.3379   -3.4760 C.ar      1 <0>        -0.1534
     19 C13        -3.9299   -0.3963   -2.6320 C.ar      1 <0>         0.0188
     20 C14        -4.1228   -1.7223   -4.7406 C.3       1 <0>        -0.0559
     21 S1         -5.2481   -3.1031   -4.3972 S.3       1 <0>        -0.0152
     22 C15        -6.0087   -3.4300   -5.9526 C.ar      1 <0>         0.2762
     23 C16        -7.0047   -4.4890   -6.1020 C.ar      1 <0>        -0.3056
     24 C17        -7.5934   -5.4204   -5.2777 C.2       1 <0>         0.1457
     25 N5         -8.4555   -6.1333   -6.0153 N.pl3     1 <0>        -0.4114
     26 N6         -8.4429   -5.6761   -7.3386 N.2       1 <0>        -0.2783
     27 C18        -7.5846   -4.6856   -7.4427 C.ar      1 <0>         0.2993
     28 N7         -7.1575   -3.8789   -8.4336 N.ar      1 <0>        -0.5094
     29 C19        -6.2599   -2.9551   -8.2093 C.ar      1 <0>         0.3625
     30 N8         -5.7026   -2.7196   -7.0326 N.ar      1 <0>        -0.5653
     31 C20        -4.2393    2.1194    1.4464 C.3       1 <0>         0.0637
     32 H1          1.0039    1.9031    0.0027 H         1 <0>         0.0746
     33 H2         -0.5459    1.8868   -0.8726 H         1 <0>         0.0553
     34 H3         -0.5289    1.8773    0.9072 H         1 <0>         0.0545
     35 H4          0.5123   -0.3556   -0.8948 H         1 <0>         0.0869
     36 H5          0.5293   -0.3651    0.8851 H         1 <0>         0.0859
     37 H6         -4.7657    0.1068    3.0083 H         1 <0>         0.1599
     38 H7         -3.7704   -1.6162    4.4961 H         1 <0>         0.1591
     39 H8         -1.7650   -2.6616   -3.8270 H         1 <0>         0.1722
     40 H9         -4.8671    0.0859   -2.8678 H         1 <0>         0.1526
     41 H10        -4.6951   -0.8693   -5.1052 H         1 <0>         0.1151
     42 H11        -3.3981   -2.0237   -5.4969 H         1 <0>         0.1174
     43 H12        -7.3956   -5.5534   -4.2243 H         1 <0>         0.2003
     44 H13        -5.9552   -2.3382   -9.0418 H         1 <0>         0.2030
     45 H14        -3.4467    2.8513    1.6018 H         1 <0>         0.0702
     46 H15        -5.0320    2.5644    0.8450 H         1 <0>         0.0961
     47 H16        -4.6439    1.8117    2.4106 H         1 <0>         0.0815
     48 H17        -9.0064   -6.8587   -5.6819 H         1 <0>         0.4541
@<TRIPOS>BOND
     1    1    2 1
     2    1   32 1
     3    1   33 1
     4    1   34 1
     5    2    3 1
     6    2   35 1
     7    2   36 1
     8    3   15 1
     9    3    4 1
    10    4    9 ar
    11    4    5 ar
    12    5    6 ar
    13    5   11 1
    14    6    7 ar
    15    6   37 1
    16    7    8 ar
    17    7   38 1
    18    8    9 ar
    19    8   10 1
    20   11   12 am
    21   11   31 1
    22   12   13 2
    23   12   14 1
    24   14   19 ar
    25   14   15 ar
    26   15   16 ar
    27   16   17 ar
    28   17   18 ar
    29   17   39 1
    30   18   19 ar
    31   18   20 1
    32   19   40 1
    33   20   21 1
    34   20   41 1
    35   20   42 1
    36   21   22 1
    37   22   30 ar
    38   22   23 ar
    39   23   27 ar
    40   23   24 2
    41   24   25 1
    42   24   43 1
    43   25   26 1
    44   25   48 1
    45   26   27 2
    46   27   28 ar
    47   28   29 ar
    48   29   30 ar
    49   29   44 1
    50   31   45 1
    51   31   46 1
    52   31   47 1
@<TRIPOS>MOLECULE
CHEMBL317180__1
   48    52     0     0     0
SMALL
USER_CHARGES

@<TRIPOS>ATOM
      1 C1         -0.0187    1.5258    0.0104 C.3       1 <0>        -0.1714
      2 C2          0.0021   -0.0041    0.0020 C.3       1 <0>         0.1354
      3 N1          0.6878   -0.4765   -1.2033 N.pl3     1 <0>        -0.5772
      4 C3         -0.0294   -0.7093   -2.3768 C.ar      1 <0>         0.3804
      5 C4          0.2592    0.0020   -3.5389 C.ar      1 <0>         0.0974
      6 C5         -0.4390   -0.3005   -4.7037 C.ar      1 <0>        -0.0726
      7 C6         -1.4212   -1.2794   -4.6556 C.ar      1 <0>        -0.1350
      8 C7         -1.6761   -1.9213   -3.4595 C.ar      1 <0>         0.1841
      9 N2         -0.9871   -1.6263   -2.3726 N.ar      1 <0>        -0.4678
     10 Cl1        -2.9188   -3.1312   -3.3841 Cl        1 <0>        -0.0158
     11 N3          1.1873    1.0408   -3.5541 N.am      1 <0>        -0.5370
     12 C8          2.3528    1.0748   -2.9252 C.2       1 <0>         0.5762
     13 O1          3.0365    2.0688   -3.0757 O.2       1 <0>        -0.5160
     14 C9          2.8892    0.0171   -2.0630 C.ar      1 <0>        -0.1964
     15 C10         2.0554   -0.6913   -1.1915 C.ar      1 <0>         0.4221
     16 N4          2.5741   -1.5848   -0.3616 N.ar      1 <0>        -0.4926
     17 C11         3.8622   -1.8676   -0.3601 C.ar      1 <0>         0.1764
     18 C12         4.7345   -1.2399   -1.2304 C.ar      1 <0>        -0.1532
     19 C13         4.2542   -0.2882   -2.0933 C.ar      1 <0>         0.0189
     20 C14         6.1974   -1.6016   -1.2327 C.3       1 <0>        -0.0562
     21 S1          6.4839   -2.9550   -2.4062 S.3       1 <0>        -0.0154
     22 C15         8.2161   -3.2572   -2.2937 C.ar      1 <0>         0.2473
     23 C16         8.8271   -4.2559   -3.0781 C.ar      1 <0>        -0.2658
     24 C17         8.3683   -5.1835   -4.0376 C.2       1 <0>         0.1097
     25 N5          9.3850   -5.8834   -4.4542 N.2       1 <0>        -0.2310
     26 N6         10.5489   -5.4595   -3.8005 N.pl3     1 <0>        -0.4761
     27 C18        10.2153   -4.4516   -2.9456 C.ar      1 <0>         0.3581
     28 N7         10.8930   -3.6884   -2.0889 N.ar      1 <0>        -0.5413
     29 C19        10.2787   -2.7680   -1.3786 C.ar      1 <0>         0.3648
     30 N8          8.9796   -2.5452   -1.4710 N.ar      1 <0>        -0.5558
     31 C20         0.8376    2.2201   -4.3500 C.3       1 <0>         0.0638
     32 H1          1.0039    1.9031    0.0027 H         1 <0>         0.0552
     33 H2         -0.5459    1.8868   -0.8726 H         1 <0>         0.0545
     34 H3         -0.5289    1.8773    0.9072 H         1 <0>         0.0744
     35 H4          0.5293   -0.3651    0.8851 H         1 <0>         0.0867
     36 H5         -1.0205   -0.3814    0.0098 H         1 <0>         0.0859
     37 H6         -0.2206    0.2159   -5.6268 H         1 <0>         0.1599
     38 H7         -1.9797   -1.5367   -5.5434 H         1 <0>         0.1592
     39 H8          4.2426   -2.6030    0.3332 H         1 <0>         0.1720
     40 H9          4.9193    0.2181   -2.7772 H         1 <0>         0.1524
     41 H10         6.7859   -0.7333   -1.5288 H         1 <0>         0.1136
     42 H11         6.4950   -1.9185   -0.2331 H         1 <0>         0.1159
     43 H12         7.3467   -5.2948   -4.3700 H         1 <0>         0.2041
     44 H13        10.8600   -2.1680   -0.6942 H         1 <0>         0.2096
     45 H14         0.2956    2.9313   -3.7267 H         1 <0>         0.0700
     46 H15         1.7476    2.6870   -4.7267 H         1 <0>         0.0960
     47 H16         0.2095    1.9193   -5.1885 H         1 <0>         0.0816
     48 H17        11.4392   -5.8210   -3.9333 H         1 <0>         0.4511
@<TRIPOS>BOND
     1    1    2 1
     2    1   32 1
     3    1   33 1
     4    1   34 1
     5    2    3 1
     6    2   35 1
     7    2   36 1
     8    3   15 1
     9    3    4 1
    10    4    9 ar
    11    4    5 ar
    12    5    6 ar
    13    5   11 1
    14    6    7 ar
    15    6   37 1
    16    7    8 ar
    17    7   38 1
    18    8    9 ar
    19    8   10 1
    20   11   12 am
    21   11   31 1
    22   12   13 2
    23   12   14 1
    24   14   19 ar
    25   14   15 ar
    26   15   16 ar
    27   16   17 ar
    28   17   18 ar
    29   17   39 1
    30   18   19 ar
    31   18   20 1
    32   19   40 1
    33   20   21 1
    34   20   41 1
    35   20   42 1
    36   21   22 1
    37   22   30 ar
    38   22   23 ar
    39   23   24 1
    40   23   27 ar
    41   24   43 1
    42   24   25 2
    43   25   26 1
    44   26   27 1
    45   26   48 1
    46   27   28 ar
    47   28   29 ar
    48   29   30 ar
    49   29   44 1
    50   31   45 1
    51   31   46 1
    52   31   47 1
@<TRIPOS>MOLECULE
CHEMBL142853
   41    45     0     0     0
SMALL
USER_CHARGES

@<TRIPOS>ATOM
      1 C1         -0.0178    1.4608    0.0101 C.3       1 <0>         0.0583
      2 N1          0.0021   -0.0041    0.0020 N.am      1 <0>        -0.5355
      3 C2         -1.2351   -0.6442    0.0049 C.ar      1 <0>         0.0800
      4 C3         -2.2605   -0.1335    0.7979 C.ar      1 <0>        -0.0727
      5 C4         -3.4979   -0.7539    0.7684 C.ar      1 <0>        -0.1511
      6 C5         -3.6815   -1.8628   -0.0518 C.ar      1 <0>         0.2323
      7 N2         -2.6814   -2.3333   -0.7862 N.ar      1 <0>        -0.4788
      8 C6         -1.4786   -1.7770   -0.7678 C.ar      1 <0>         0.3744
      9 N3         -0.4496   -2.3766   -1.4946 N.pl3     1 <0>        -0.5526
     10 C7          0.6528   -2.8790   -0.8240 C.ar      1 <0>         0.4138
     11 C8          1.4442   -2.0246   -0.0410 C.ar      1 <0>        -0.1987
     12 C9          2.5089   -2.5686    0.6861 C.ar      1 <0>        -0.0023
     13 C10         2.7602   -3.9251    0.5696 C.ar      1 <0>        -0.1897
     14 C11         1.9610   -4.6962   -0.2543 C.ar      1 <0>         0.1459
     15 N4          0.9499   -4.1669   -0.9153 N.ar      1 <0>        -0.4934
     16 C12         1.1943   -0.5805   -0.0125 C.2       1 <0>         0.5751
     17 O1          2.1653    0.1511    0.0041 O.2       1 <0>        -0.5261
     18 C13        -0.5349   -2.4744   -2.9538 C.3       1 <0>         0.1082
     19 C14         0.5232   -3.3174   -3.6685 C.3       1 <0>        -0.1743
     20 C15         0.5622   -1.7915   -3.7729 C.3       1 <0>        -0.2001
     21 C16        -5.0078   -2.5251   -0.1061 C.2       1 <0>        -0.2107
     22 C17        -5.3095   -3.6731   -0.7804 C.2       1 <0>         0.1157
     23 N5         -6.6152   -3.9356   -0.5744 N.pl3     1 <0>        -0.4709
     24 H1         -7.1066   -4.6913   -0.9326 H         1 <0>         0.4448
     25 N6         -7.1402   -2.9300    0.2462 N.2       1 <0>        -0.2906
     26 C18        -6.1842   -2.0872    0.5338 C.2       1 <0>         0.0784
     27 H2          1.0048    1.8381    0.0023 H         1 <0>         0.1055
     28 H3         -0.5450    1.8219   -0.8730 H         1 <0>         0.0707
     29 H4         -0.5280    1.8123    0.9069 H         1 <0>         0.0711
     30 H5         -2.0932    0.7302    1.4243 H         1 <0>         0.1485
     31 H6         -4.3105   -0.3820    1.3749 H         1 <0>         0.1473
     32 H7          3.1198   -1.9455    1.3224 H         1 <0>         0.1485
     33 H8          3.5734   -4.3773    1.1178 H         1 <0>         0.1489
     34 H9          2.1687   -5.7508   -0.3587 H         1 <0>         0.1679
     35 H10        -1.5437   -2.4765   -3.3667 H         1 <0>         0.1315
     36 H11         1.2827   -3.7994   -3.0529 H         1 <0>         0.1045
     37 H12         0.2105   -3.8745   -4.5517 H         1 <0>         0.1045
     38 H13         0.2753   -1.3447   -4.7249 H         1 <0>         0.1039
     39 H14         1.3475   -1.2695   -3.2261 H         1 <0>         0.0903
     40 H15        -4.6257   -4.2639   -1.3718 H         1 <0>         0.1874
     41 H16        -6.2797   -1.2068    1.1521 H         1 <0>         0.1902
@<TRIPOS>BOND
     1    1    2 1
     2    1   27 1
     3    1   28 1
     4    1   29 1
     5    2   16 am
     6    2    3 1
     7    3    8 ar
     8    3    4 ar
     9    4    5 ar
    10    4   30 1
    11    5    6 ar
    12    5   31 1
    13    6    7 ar
    14    6   21 1
    15    7    8 ar
    16    8    9 1
    17    9   10 1
    18    9   18 1
    19   10   15 ar
    20   10   11 ar
    21   11   12 ar
    22   11   16 1
    23   12   13 ar
    24   12   32 1
    25   13   14 ar
    26   13   33 1
    27   14   15 ar
    28   14   34 1
    29   16   17 2
    30   18   20 1
    31   18   19 1
    32   18   35 1
    33   19   20 1
    34   19   36 1
    35   19   37 1
    36   20   38 1
    37   20   39 1
    38   21   26 1
    39   21   22 2
    40   22   23 1
    41   22   40 1
    42   23   24 1
    43   23   25 1
    44   25   26 2
    45   26   41 1
@<TRIPOS>MOLECULE
CHEMBL123779
   29    30     0     0     0
SMALL
USER_CHARGES

@<TRIPOS>ATOM
      1 C1         -0.0184    1.5028    0.0103 C.3       1 <0>        -0.1168
      2 C2          0.0021   -0.0041    0.0020 C.ar      1 <0>        -0.0853
      3 C3          0.0057   -0.6888   -1.1991 C.ar      1 <0>        -0.1111
      4 C4          0.0245   -2.0707   -1.2067 C.ar      1 <0>        -0.1150
      5 C5          0.0400   -2.7685   -0.0132 C.ar      1 <0>        -0.1042
      6 C6          0.0373   -2.0840    1.1875 C.ar      1 <0>        -0.0784
      7 C7          0.0229   -0.7015    1.1951 C.ar      1 <0>        -0.0994
      8 C8          0.0538   -2.8445    2.4885 C.3       1 <0>        -0.0659
      9 S1          1.7705   -3.1275    3.0017 S.3       1 <0>         0.0243
     10 C9          1.6217   -4.0148    4.5167 C.ar      1 <0>         0.3595
     11 N1          2.7200   -4.3762    5.1643 N.ar      1 <0>        -0.5589
     12 C10         2.6417   -5.0461    6.3098 C.ar      1 <0>         0.4683
     13 C11         1.3836   -5.3652    6.8237 C.ar      1 <0>        -0.2873
     14 C12         0.2625   -4.9696    6.1170 C.ar      1 <0>         0.2656
     15 N2          0.4142   -4.2994    4.9828 N.ar      1 <0>        -0.5650
     16 Cl1        -1.3258   -5.3407    6.7114 Cl        1 <0>        -0.0094
     17 N3          3.7922   -5.4226    6.9837 N.pl3     1 <0>        -0.8254
     18 H1          1.0042    1.8801    0.0026 H         1 <0>         0.0725
     19 H2         -0.5455    1.8639   -0.8728 H         1 <0>         0.0678
     20 H3         -0.5286    1.8543    0.9071 H         1 <0>         0.0675
     21 H4         -0.0064   -0.1437   -2.1314 H         1 <0>         0.1243
     22 H5          0.0266   -2.6056   -2.1449 H         1 <0>         0.1263
     23 H6          0.0540   -3.8484   -0.0191 H         1 <0>         0.1257
     24 H7          0.0246   -0.1666    2.1333 H         1 <0>         0.1256
     25 H8         -0.4637   -2.2663    3.2539 H         1 <0>         0.1051
     26 H9         -0.4484   -3.8028    2.3555 H         1 <0>         0.1055
     27 H10         1.2879   -5.9089    7.7520 H         1 <0>         0.1544
     28 H11         4.6628   -5.1975    6.6201 H         1 <0>         0.4133
     29 H12         3.7270   -5.9112    7.8191 H         1 <0>         0.4166
@<TRIPOS>BOND
     1    1    2 1
     2    1   18 1
     3    1   19 1
     4    1   20 1
     5    2    7 ar
     6    2    3 ar
     7    3    4 ar
     8    3   21 1
     9    4    5 ar
    10    4   22 1
    11    5    6 ar
    12    5   23 1
    13    6    7 ar
    14    6    8 1
    15    7   24 1
    16    8    9 1
    17    8   25 1
    18    8   26 1
    19    9   10 1
    20   10   15 ar
    21   10   11 ar
    22   11   12 ar
    23   12   13 ar
    24   12   17 1
    25   13   14 ar
    26   13   27 1
    27   14   15 ar
    28   14   16 1
    29   17   28 1
    30   17   29 1
@<TRIPOS>MOLECULE
CHEMBL125446
   55    58     0     0     0
SMALL
USER_CHARGES

@<TRIPOS>ATOM
      1 C1         -0.0184    1.5028    0.0103 C.3       1 <0>        -0.0734
      2 C2          0.0021   -0.0041    0.0020 C.2       1 <0>         0.0773
      3 C3          0.0081   -0.8159   -1.1155 C.2       1 <0>        -0.0930
      4 C4         -0.0010   -0.5736   -2.5019 C.2       1 <0>         0.0401
      5 C5          0.0099   -1.6309   -3.3565 C.2       1 <0>        -0.2260
      6 C6          0.0295   -2.9463   -2.8527 C.2       1 <0>         0.4014
      7 N1          0.0380   -3.1771   -1.5634 N.2       1 <0>        -0.3034
      8 N2          0.0278   -2.1175   -0.6509 N.pl3     1 <0>        -0.2569
      9 C7          0.0330   -2.0543    0.6929 C.2       1 <0>         0.2557
     10 N3          0.0235   -0.7987    1.0711 N.2       1 <0>        -0.4565
     11 C8          0.0528   -3.2423    1.6199 C.3       1 <0>        -0.0353
     12 C9          1.5019   -3.6254    1.9271 C.3       1 <0>        -0.1110
     13 C10         1.5220   -4.8315    2.8682 C.3       1 <0>        -0.1180
     14 C11         2.9711   -5.2146    3.1755 C.3       1 <0>        -0.1191
     15 C12         2.9912   -6.4207    4.1166 C.3       1 <0>        -0.1115
     16 C13         4.4403   -6.8037    4.4238 C.3       1 <0>        -0.1667
     17 C14         4.4601   -7.9918    5.3508 C.2       1 <0>         0.3951
     18 O1          3.4181   -8.4835    5.7284 O.2       1 <0>        -0.4500
     19 C15         5.7441   -8.5550    5.7977 C.ar      1 <0>        -0.1731
     20 C16         6.9481   -7.9870    5.3690 C.ar      1 <0>        -0.0737
     21 C17         8.1471   -8.5203    5.7925 C.ar      1 <0>        -0.1335
     22 C18         8.1611   -9.6147    6.6397 C.ar      1 <0>        -0.0881
     23 C19         6.9739  -10.1827    7.0680 C.ar      1 <0>        -0.1325
     24 C20         5.7667   -9.6575    6.6580 C.ar      1 <0>        -0.0626
     25 N4          0.0395   -4.0236   -3.7440 N.pl3     1 <0>        -0.3932
     26 C21         0.0379   -3.9302   -5.1072 C.2       1 <0>        -0.0105
     27 C22         0.0506   -5.1791   -5.6147 C.2       1 <0>        -0.1706
     28 C23         0.0604   -6.0777   -4.5284 C.2       1 <0>        -0.1827
     29 C24         0.0584   -5.3451   -3.3967 C.2       1 <0>         0.0054
     30 H1          1.0042    1.8801    0.0026 H         1 <0>         0.0792
     31 H2         -0.5455    1.8639   -0.8728 H         1 <0>         0.0750
     32 H3         -0.5286    1.8543    0.9071 H         1 <0>         0.0814
     33 H4         -0.0167    0.4374   -2.8813 H         1 <0>         0.1652
     34 H5          0.0031   -1.4621   -4.4232 H         1 <0>         0.1554
     35 H6         -0.4602   -2.9881    2.5474 H         1 <0>         0.1006
     36 H7         -0.4521   -4.0830    1.1440 H         1 <0>         0.0865
     37 H8          2.0150   -3.8796    0.9996 H         1 <0>         0.0606
     38 H9          2.0068   -2.7847    2.4030 H         1 <0>         0.0701
     39 H10         1.0089   -4.5773    3.7957 H         1 <0>         0.0678
     40 H11         1.0171   -5.6722    2.3923 H         1 <0>         0.0650
     41 H12         3.4842   -5.4688    2.2480 H         1 <0>         0.0620
     42 H13         3.4760   -4.3739    3.6514 H         1 <0>         0.0641
     43 H14         2.4781   -6.1665    5.0441 H         1 <0>         0.0697
     44 H15         2.4863   -7.2613    3.6407 H         1 <0>         0.0688
     45 H16         4.9533   -7.0580    3.4964 H         1 <0>         0.0991
     46 H17         4.9452   -5.9631    4.8997 H         1 <0>         0.0997
     47 H18         6.9387   -7.1333    4.7077 H         1 <0>         0.1322
     48 H19         9.0777   -8.0830    5.4621 H         1 <0>         0.1298
     49 H20         9.1034  -10.0278    6.9679 H         1 <0>         0.1281
     50 H21         6.9930  -11.0368    7.7287 H         1 <0>         0.1297
     51 H22         4.8411  -10.0990    6.9966 H         1 <0>         0.1333
     52 H23         0.0277   -3.0142   -5.6792 H         1 <0>         0.1728
     53 H24         0.0526   -5.4430   -6.6619 H         1 <0>         0.1505
     54 H25         0.0715   -7.1558   -4.5913 H         1 <0>         0.1485
     55 H26         0.0682   -5.7352   -2.3897 H         1 <0>         0.1714
@<TRIPOS>BOND
     1    1    2 1
     2    1   30 1
     3    1   31 1
     4    1   32 1
     5    2   10 1
     6    2    3 2
     7    3    8 1
     8    3    4 1
     9    4    5 2
    10    4   33 1
    11    5    6 1
    12    5   34 1
    13    6    7 2
    14    6   25 1
    15    7    8 1
    16    8    9 1
    17    9   10 2
    18    9   11 1
    19   11   12 1
    20   11   35 1
    21   11   36 1
    22   12   13 1
    23   12   37 1
    24   12   38 1
    25   13   14 1
    26   13   39 1
    27   13   40 1
    28   14   15 1
    29   14   41 1
    30   14   42 1
    31   15   16 1
    32   15   43 1
    33   15   44 1
    34   16   17 1
    35   16   45 1
    36   16   46 1
    37   17   18 2
    38   17   19 1
    39   19   24 ar
    40   19   20 ar
    41   20   21 ar
    42   20   47 1
    43   21   22 ar
    44   21   48 1
    45   22   23 ar
    46   22   49 1
    47   23   24 ar
    48   23   50 1
    49   24   51 1
    50   25   29 1
    51   25   26 1
    52   26   27 2
    53   26   52 1
    54   27   28 1
    55   27   53 1
    56   28   29 2
    57   28   54 1
    58   29   55 1
@<TRIPOS>MOLECULE
CHEMBL338992
   42    44     0     0     0
SMALL
USER_CHARGES

@<TRIPOS>ATOM
      1 C1         -0.0187    1.5258    0.0104 C.3       1 <0>        -0.1495
      2 C2          0.0021   -0.0041    0.0020 C.3       1 <0>        -0.0701
      3 C3          0.7074   -0.4901   -1.2379 C.2       1 <0>        -0.1323
      4 C4         -0.0010   -0.6214   -2.4413 C.2       1 <0>        -0.1283
      5 C5          0.6543   -1.0633   -3.5575 C.2       1 <0>         0.1013
      6 C6          2.0286   -1.3768   -3.4708 C.2       1 <0>         0.5140
      7 N1          2.6767   -1.2386   -2.2984 N.am      1 <0>        -0.5907
      8 C7          2.0242   -0.7940   -1.1909 C.2       1 <0>         0.0930
      9 C8          2.7767   -0.6437    0.1061 C.3       1 <0>        -0.1201
     10 O1          2.6283   -1.7729   -4.4575 O.2       1 <0>        -0.5538
     11 N2         -0.0295   -1.2038   -4.7716 N.pl3     1 <0>        -0.7277
     12 C9          0.6810   -1.6780   -5.9618 C.3       1 <0>         0.2430
     13 C10        -0.2742   -1.7397   -7.1257 C.2       1 <0>         0.1593
     14 N3         -0.5074   -0.7712   -7.9690 N.2       1 <0>        -0.4531
     15 C11        -1.4106   -1.1926   -8.8628 C.2       1 <0>        -0.0153
     16 C12        -1.7366   -2.4612   -8.5492 C.2       1 <0>        -0.0412
     17 O2         -1.0202   -2.8016   -7.4685 O.3       1 <0>        -0.1883
     18 C13        -2.7297   -3.2980   -9.3139 C.3       1 <0>        -0.0338
     19 C14        -3.5711   -2.3665  -10.1953 C.3       1 <0>        -0.1177
     20 C15        -2.6449   -1.4375  -10.9851 C.3       1 <0>        -0.1231
     21 C16        -1.9917   -0.4324  -10.0284 C.3       1 <0>        -0.0378
     22 H1          1.0039    1.9031    0.0027 H         1 <0>         0.0549
     23 H2         -0.5459    1.8868   -0.8726 H         1 <0>         0.0562
     24 H3         -0.5289    1.8773    0.9072 H         1 <0>         0.0581
     25 H4          0.5293   -0.3651    0.8851 H         1 <0>         0.0748
     26 H5         -1.0205   -0.3814    0.0098 H         1 <0>         0.0736
     27 H6         -1.0519   -0.3766   -2.4859 H         1 <0>         0.1307
     28 H7          2.7255   -1.5774    0.6662 H         1 <0>         0.0828
     29 H8          3.8188   -0.4029   -0.1043 H         1 <0>         0.0723
     30 H9          2.3303    0.1579    0.6945 H         1 <0>         0.0913
     31 H10         3.6207   -1.4552   -2.2441 H         1 <0>         0.4168
     32 H11        -0.9735   -0.9872   -4.8244 H         1 <0>         0.4065
     33 H12         1.4954   -0.9924   -6.1960 H         1 <0>         0.1094
     34 H13         1.0862   -2.6718   -5.7712 H         1 <0>         0.0948
     35 H14        -2.1997   -4.0159   -9.9398 H         1 <0>         0.0911
     36 H15        -3.3781   -3.8274   -8.6157 H         1 <0>         0.0879
     37 H16        -4.1661   -2.9614  -10.8883 H         1 <0>         0.0835
     38 H17        -4.2330   -1.7710   -9.5665 H         1 <0>         0.0716
     39 H18        -1.8710   -2.0276  -11.4760 H         1 <0>         0.0694
     40 H19        -3.2237   -0.9004  -11.7365 H         1 <0>         0.0795
     41 H20        -2.7410    0.2731   -9.6695 H         1 <0>         0.0825
     42 H21        -1.1987    0.1060  -10.5473 H         1 <0>         0.0845
@<TRIPOS>BOND
     1    1    2 1
     2    1   22 1
     3    1   23 1
     4    1   24 1
     5    2   25 1
     6    2   26 1
     7    2    3 1
     8    3    8 2
     9    3    4 1
    10    4   27 1
    11    4    5 2
    12    5    6 1
    13    5   11 1
    14    6   10 2
    15    6    7 am
    16    7   31 1
    17    7    8 1
    18    8    9 1
    19    9   28 1
    20    9   29 1
    21    9   30 1
    22   11   12 1
    23   11   32 1
    24   12   13 1
    25   12   33 1
    26   12   34 1
    27   13   17 1
    28   13   14 2
    29   14   15 1
    30   15   21 1
    31   15   16 2
    32   16   17 1
    33   16   18 1
    34   18   19 1
    35   18   35 1
    36   18   36 1
    37   19   20 1
    38   19   37 1
    39   19   38 1
    40   20   21 1
    41   20   39 1
    42   20   40 1
    43   21   41 1
    44   21   42 1
@<TRIPOS>MOLECULE
CHEMBL123959
   36    36     0     0     0
SMALL
USER_CHARGES

@<TRIPOS>ATOM
      1 C1         -0.0187    1.5258    0.0104 C.3       1 <0>        -0.1745
      2 C2          0.0021   -0.0041    0.0020 C.3       1 <0>         0.1014
      3 N1         -1.3723   -0.5112    0.0124 N.am      1 <0>        -0.6090
      4 C3         -2.0716   -0.7579   -1.2510 C.3       1 <0>         0.1100
      5 C4         -1.8159   -2.1971   -1.7029 C.3       1 <0>        -0.1679
      6 C5         -1.9934   -0.7507    1.1843 C.2       1 <0>         0.5469
      7 O1         -3.1343   -1.1716    1.1930 O.2       1 <0>        -0.5379
      8 C6         -1.2912   -0.5029    2.4530 C.2       1 <0>        -0.1885
      9 C7         -1.9041   -0.7393    3.6094 C.2       1 <0>        -0.0563
     10 C8         -1.1847   -0.4855    4.9091 C.3       1 <0>        -0.0912
     11 S1         -2.0163    0.8519    5.8093 S.3       1 <0>         0.0350
     12 C9         -1.0690    1.0260    7.2847 C.ar      1 <0>         0.3598
     13 N2         -1.4266    1.9368    8.1785 N.ar      1 <0>        -0.5579
     14 C10        -0.7332    2.0927    9.3018 C.ar      1 <0>         0.4692
     15 C11         0.3803    1.2820    9.5290 C.ar      1 <0>        -0.2860
     16 C12         0.7198    0.3438    8.5712 C.ar      1 <0>         0.2657
     17 N3         -0.0198    0.2390    7.4755 N.ar      1 <0>        -0.5654
     18 Cl1         2.0951   -0.6898    8.8038 Cl        1 <0>        -0.0084
     19 N4         -1.1100    3.0463   10.2335 N.pl3     1 <0>        -0.8247
     20 H1          1.0039    1.9031    0.0027 H         1 <0>         0.0695
     21 H2         -0.5459    1.8868   -0.8726 H         1 <0>         0.0597
     22 H3         -0.5289    1.8773    0.9072 H         1 <0>         0.0603
     23 H4          0.5123   -0.3556   -0.8948 H         1 <0>         0.0817
     24 H5          0.5293   -0.3651    0.8851 H         1 <0>         0.0823
     25 H6         -3.1417   -0.6062   -1.1097 H         1 <0>         0.0848
     26 H7         -1.7041   -0.0678   -2.0105 H         1 <0>         0.0773
     27 H8         -0.7458   -2.3488   -1.8443 H         1 <0>         0.0552
     28 H9         -2.1835   -2.8871   -0.9434 H         1 <0>         0.0594
     29 H10        -2.3362   -2.3807   -2.6429 H         1 <0>         0.0673
     30 H11        -0.2780   -0.1291    2.4453 H         1 <0>         0.1337
     31 H12        -2.9173   -1.1131    3.6170 H         1 <0>         0.1402
     32 H13        -1.1960   -1.3923    5.5137 H         1 <0>         0.1164
     33 H14        -0.1534   -0.1987    4.7035 H         1 <0>         0.1059
     34 H15         0.9637    1.3854   10.4320 H         1 <0>         0.1550
     35 H16        -1.8847    3.6061   10.0685 H         1 <0>         0.4137
     36 H17        -0.5990    3.1541   11.0509 H         1 <0>         0.4170
@<TRIPOS>BOND
     1    1    2 1
     2    1   20 1
     3    1   21 1
     4    1   22 1
     5    2    3 1
     6    2   23 1
     7    2   24 1
     8    3    4 1
     9    3    6 am
    10    4    5 1
    11    4   25 1
    12    4   26 1
    13    5   27 1
    14    5   28 1
    15    5   29 1
    16    6    7 2
    17    6    8 1
    18    8    9 2
    19    8   30 1
    20    9   10 1
    21    9   31 1
    22   10   11 1
    23   10   32 1
    24   10   33 1
    25   11   12 1
    26   12   17 ar
    27   12   13 ar
    28   13   14 ar
    29   14   15 ar
    30   14   19 1
    31   15   16 ar
    32   15   34 1
    33   16   17 ar
    34   16   18 1
    35   19   35 1
    36   19   36 1
@<TRIPOS>MOLECULE
CHEMBL39015
   49    51     0     0     0
SMALL
USER_CHARGES

@<TRIPOS>ATOM
      1 C1         -0.6644    0.9416   -0.5410 C.3       1 <0>        -0.1493
      2 C2         -0.2199   -0.5217   -0.4957 C.3       1 <0>        -0.0365
      3 C3         -1.4335   -1.4300   -0.7036 C.3       1 <0>        -0.1492
      4 C4          0.7891   -0.7742   -1.5862 C.2       1 <0>        -0.1631
      5 C5          0.4499   -0.5658   -2.9318 C.2       1 <0>         0.5560
      6 O1         -0.6669   -0.1773   -3.2295 O.2       1 <0>        -0.4886
      7 N1          1.3655   -0.7970   -3.8930 N.am      1 <0>        -0.6569
      8 H1          1.1323   -0.6533   -4.8235 H         1 <0>         0.4341
      9 C6          2.6004   -1.2249   -3.5737 C.2       1 <0>         0.7009
     10 O2          3.4111   -1.4268   -4.4571 O.2       1 <0>        -0.5174
     11 N2          2.9521   -1.4323   -2.2914 N.am      1 <0>        -0.5400
     12 C7          2.0506   -1.2045   -1.2781 C.2       1 <0>         0.1158
     13 S1          2.5143   -1.4699    0.4010 S.3       1 <0>         0.0618
     14 C8          2.6706   -3.2204    0.5283 C.ar      1 <0>        -0.1253
     15 C9          2.3903   -4.0260   -0.5682 C.ar      1 <0>        -0.1224
     16 C10         2.5138   -5.3975   -0.4649 C.ar      1 <0>        -0.0974
     17 C11         2.9160   -5.9692    0.7284 C.ar      1 <0>        -0.1083
     18 C12         3.1954   -5.1702    1.8221 C.ar      1 <0>        -0.0981
     19 C13         3.0799   -3.7976    1.7239 C.ar      1 <0>        -0.0859
     20 C14         4.3040   -1.8980   -1.9728 C.3       1 <0>         0.2685
     21 O3          5.2279   -0.8185   -2.1248 O.3       1 <0>        -0.3577
     22 C15         5.1793    0.1413   -1.0672 C.3       1 <0>         0.0949
     23 C16         6.1014    1.2893   -1.3879 C.ar      1 <0>        -0.0947
     24 C17         7.4232    1.2474   -0.9853 C.ar      1 <0>        -0.0959
     25 C18         8.2690    2.3005   -1.2794 C.ar      1 <0>        -0.1221
     26 C19         7.7933    3.3952   -1.9767 C.ar      1 <0>        -0.1103
     27 C20         6.4718    3.4366   -2.3802 C.ar      1 <0>        -0.1217
     28 C21         5.6270    2.3817   -2.0897 C.ar      1 <0>        -0.0968
     29 H2          0.2002    1.5886   -0.3929 H         1 <0>         0.0517
     30 H3         -1.1158    1.1544   -1.5100 H         1 <0>         0.0722
     31 H4         -1.3942    1.1242    0.2477 H         1 <0>         0.0660
     32 H5          0.2314   -0.7346    0.4733 H         1 <0>         0.1011
     33 H6         -1.8849   -1.2172   -1.6727 H         1 <0>         0.0714
     34 H7         -1.1169   -2.4725   -0.6714 H         1 <0>         0.0507
     35 H8         -2.1634   -1.2474    0.0851 H         1 <0>         0.0656
     36 H9          2.0758   -3.5802   -1.5003 H         1 <0>         0.1172
     37 H10         2.2957   -6.0244   -1.3169 H         1 <0>         0.1301
     38 H11         3.0118   -7.0421    0.8065 H         1 <0>         0.1309
     39 H12         3.5086   -5.6200    2.7527 H         1 <0>         0.1346
     40 H13         3.3033   -3.1739    2.5768 H         1 <0>         0.1336
     41 H14         4.3315   -2.2577   -0.9443 H         1 <0>         0.1008
     42 H15         4.5778   -2.7084   -2.6485 H         1 <0>         0.1347
     43 H16         4.1602    0.5128   -0.9602 H         1 <0>         0.0570
     44 H17         5.4945   -0.3285   -0.1355 H         1 <0>         0.0712
     45 H18         7.7949    0.3922   -0.4405 H         1 <0>         0.1245
     46 H19         9.3015    2.2681   -0.9642 H         1 <0>         0.1257
     47 H20         8.4539    4.2182   -2.2060 H         1 <0>         0.1246
     48 H21         6.1000    4.2920   -2.9247 H         1 <0>         0.1245
     49 H22         4.5955    2.4124   -2.4082 H         1 <0>         0.1175
@<TRIPOS>BOND
     1    1    2 1
     2    1   29 1
     3    1   30 1
     4    1   31 1
     5    2    3 1
     6    2    4 1
     7    2   32 1
     8    3   33 1
     9    3   34 1
    10    3   35 1
    11    4   12 2
    12    4    5 1
    13    5    6 2
    14    5    7 am
    15    7    8 1
    16    7    9 am
    17    9   10 2
    18    9   11 am
    19   11   12 1
    20   11   20 1
    21   12   13 1
    22   13   14 1
    23   14   19 ar
    24   14   15 ar
    25   15   16 ar
    26   15   36 1
    27   16   17 ar
    28   16   37 1
    29   17   18 ar
    30   17   38 1
    31   18   19 ar
    32   18   39 1
    33   19   40 1
    34   20   21 1
    35   20   41 1
    36   20   42 1
    37   21   22 1
    38   22   23 1
    39   22   43 1
    40   22   44 1
    41   23   28 ar
    42   23   24 ar
    43   24   25 ar
    44   24   45 1
    45   25   26 ar
    46   25   46 1
    47   26   27 ar
    48   26   47 1
    49   27   28 ar
    50   27   48 1
    51   28   49 1
@<TRIPOS>MOLECULE
CHEMBL172454
   36    38     0     0     0
SMALL
USER_CHARGES

@<TRIPOS>ATOM
      1 C1         -0.0187    1.5258    0.0104 C.3       1 <0>        -0.1860
      2 C2          0.0021   -0.0041    0.0020 C.3       1 <0>        -0.0037
      3 H1         -1.0260   -0.3663    0.0099 H         1 <0>         0.1471
      4 C3          0.6677   -0.4702   -1.2655 C.3       1 <0>         0.1080
      5 N1          0.3554   -1.8695   -1.5280 N.pl3     1 <0>        -0.5066
      6 C4          0.5573   -2.8635   -0.5329 C.ar      1 <0>         0.0805
      7 C5          0.6747   -4.0550   -1.2590 C.ar      1 <0>         0.1075
      8 C6          0.9977   -5.2332   -0.6042 C.ar      1 <0>        -0.0624
      9 C7          1.0883   -5.2331    0.7746 C.ar      1 <0>        -0.0701
     10 C8          0.8255   -4.0811    1.4890 C.ar      1 <0>        -0.0165
     11 C9          0.5217   -2.8860    0.8317 C.ar      1 <0>        -0.0986
     12 C10         0.1738   -1.7176    1.7267 C.3       1 <0>         0.0295
     13 N2          0.6573   -0.4598    1.1892 N.4       1 <0>        -0.3679
     14 C11         0.5034    0.5712    2.2243 C.3       1 <0>         0.0127
     15 C12         1.2876    0.1748    3.4487 C.2       1 <0>        -0.2475
     16 C13         2.1811    0.9927    3.9474 C.2       1 <0>        -0.0927
     17 Cl1         0.8725   -4.1180    3.2240 Cl        1 <0>        -0.0228
     18 N3          0.3021   -3.7771   -2.5734 N.pl3     1 <0>        -0.5820
     19 C14        -0.0363   -2.4738   -2.6483 C.2       1 <0>         0.5188
     20 S1         -0.8356   -1.7223   -3.9625 S.2       1 <0>        -0.5026
     21 H2          1.0039    1.9031    0.0027 H         1 <0>         0.0914
     22 H3         -0.5459    1.8868   -0.8726 H         1 <0>         0.1147
     23 H4         -0.5289    1.8773    0.9072 H         1 <0>         0.0999
     24 H5          0.3176    0.1382   -2.0994 H         1 <0>         0.1600
     25 H6          1.7472   -0.3557   -1.1671 H         1 <0>         0.1113
     26 H7          1.1759   -6.1393   -1.1642 H         1 <0>         0.1636
     27 H8          1.3654   -6.1377    1.2956 H         1 <0>         0.1662
     28 H9         -0.9094   -1.6651    1.8358 H         1 <0>         0.1482
     29 H10         0.6198   -1.8781    2.7083 H         1 <0>         0.1583
     30 H11         0.8759    1.5235    1.8469 H         1 <0>         0.1500
     31 H12        -0.5504    0.6706    2.4843 H         1 <0>         0.1415
     32 H13         1.1130   -0.7836    3.9149 H         1 <0>         0.1337
     33 H14         2.3558    1.9511    3.4812 H         1 <0>         0.1143
     34 H15         2.7431    0.7086    4.8248 H         1 <0>         0.1255
     35 H16         0.2886   -4.4115   -3.3071 H         1 <0>         0.4574
     36 H17         1.6417   -0.5563    0.9897 H         1 <0>         0.4192
@<TRIPOS>BOND
     1    1    2 1
     2    1   21 1
     3    1   22 1
     4    1   23 1
     5    2    3 1
     6    2   13 1
     7    2    4 1
     8    4    5 1
     9    4   24 1
    10    4   25 1
    11    5   19 1
    12    5    6 1
    13    6   11 ar
    14    6    7 ar
    15    7    8 ar
    16    7   18 1
    17    8    9 ar
    18    8   26 1
    19    9   10 ar
    20    9   27 1
    21   10   11 ar
    22   10   17 1
    23   11   12 1
    24   12   13 1
    25   12   28 1
    26   12   29 1
    27   13   14 1
    28   13   36 1
    29   14   15 1
    30   14   30 1
    31   14   31 1
    32   15   16 2
    33   15   32 1
    34   16   33 1
    35   16   34 1
    36   18   19 1
    37   18   35 1
    38   19   20 2
@<TRIPOS>MOLECULE
CHEMBL172454__1
   35    37     0     0     0
SMALL
USER_CHARGES

@<TRIPOS>ATOM
      1 C1         -0.0187    1.5258    0.0104 C.3       1 <0>        -0.1775
      2 C2          0.0021   -0.0041    0.0020 C.3       1 <0>         0.0121
      3 H1         -1.0282   -0.3600    0.0099 H         1 <0>         0.1449
      4 C3          0.6566   -0.4655   -1.2841 C.3       1 <0>         0.1114
      5 N1          2.0800   -0.1225   -1.2707 N.pl3     1 <0>        -0.5119
      6 C4          2.9561   -0.7451   -0.3888 C.ar      1 <0>         0.0081
      7 C5          4.2440   -0.3247   -0.7248 C.ar      1 <0>         0.1126
      8 C6          5.3112   -0.9064   -0.0352 C.ar      1 <0>        -0.0555
      9 C7          5.0547   -1.8658    0.9229 C.ar      1 <0>        -0.1091
     10 C8          3.7573   -2.2379    1.2596 C.ar      1 <0>        -0.0295
     11 C9          2.6912   -1.6266    0.6263 C.ar      1 <0>        -0.1252
     12 C10         1.2759   -1.7972    1.1410 C.3       1 <0>         0.0431
     13 N2          0.6608   -0.4651    1.2325 N.4       1 <0>        -0.3802
     14 C11        -0.3362   -0.4917    2.3111 C.3       1 <0>         0.0244
     15 C12         0.3398   -0.8431    3.6114 C.2       1 <0>        -0.2326
     16 C13         0.2153   -0.0529    4.6488 C.2       1 <0>        -0.1070
     17 Cl1         3.4796   -3.4570    2.4639 Cl        1 <0>        -0.0637
     18 N3          4.0959    0.6084   -1.7000 N.2       1 <0>        -0.5268
     19 C14         2.8192    0.7337   -2.0122 C.2       1 <0>         0.4807
     20 S1          2.1751    1.8492   -3.2145 S.3       1 <0>        -0.7471
     21 H2          1.0039    1.9031    0.0027 H         1 <0>         0.0833
     22 H3         -0.5459    1.8868   -0.8726 H         1 <0>         0.1145
     23 H4         -0.5289    1.8773    0.9072 H         1 <0>         0.0745
     24 H5          0.5455   -1.5456   -1.3796 H         1 <0>         0.0946
     25 H6          0.1746    0.0228   -2.1310 H         1 <0>         0.1458
     26 H7          6.3268   -0.6084   -0.2503 H         1 <0>         0.1427
     27 H8          5.8842   -2.3413    1.4251 H         1 <0>         0.1397
     28 H9          0.7062   -2.4197    0.4510 H         1 <0>         0.1332
     29 H10         1.2965   -2.2630    2.1262 H         1 <0>         0.1451
     30 H11        -0.8036    0.4891    2.3981 H         1 <0>         0.1309
     31 H12        -1.0973   -1.2381    2.0840 H         1 <0>         0.1348
     32 H13         0.9269   -1.7463    3.6880 H         1 <0>         0.1349
     33 H14        -0.3717    0.8504    4.5722 H         1 <0>         0.1106
     34 H15         0.6998   -0.3047    5.5806 H         1 <0>         0.1218
     35 H16         1.3762    0.2019    1.4806 H         1 <0>         0.4225
@<TRIPOS>BOND
     1    1    2 1
     2    1   21 1
     3    1   22 1
     4    1   23 1
     5    2    3 1
     6    2   13 1
     7    2    4 1
     8    4    5 1
     9    4   24 1
    10    4   25 1
    11    5   19 1
    12    5    6 1
    13    6   11 ar
    14    6    7 ar
    15    7    8 ar
    16    7   18 1
    17    8    9 ar
    18    8   26 1
    19    9   10 ar
    20    9   27 1
    21   10   11 ar
    22   10   17 1
    23   11   12 1
    24   12   13 1
    25   12   28 1
    26   12   29 1
    27   13   14 1
    28   13   35 1
    29   14   15 1
    30   14   30 1
    31   14   31 1
    32   15   16 2
    33   15   32 1
    34   16   33 1
    35   16   34 1
    36   18   19 2
    37   19   20 1
@<TRIPOS>MOLECULE
CHEMBL292188
   36    38     0     0     0
SMALL
USER_CHARGES

@<TRIPOS>ATOM
      1 C1          0.0614    1.5261    0.0588 C.3       1 <0>        -0.1672
      2 C2         -0.0005   -0.0016    0.0019 C.3       1 <0>         0.0400
      3 N1          0.6863   -0.4736   -1.2030 N.pl3     1 <0>        -0.4417
      4 C3         -0.1105   -0.7874   -2.3026 C.ar      1 <0>         0.0768
      5 C4         -1.3225   -1.4373   -2.0899 C.ar      1 <0>        -0.0674
      6 C5         -2.1473   -1.7383   -3.1555 C.ar      1 <0>        -0.0986
      7 C6         -1.7731   -1.3931   -4.4407 C.ar      1 <0>        -0.0575
      8 C7         -0.5665   -0.7570   -4.6618 C.ar      1 <0>        -0.1046
      9 C8          0.2739   -0.4621   -3.5968 C.ar      1 <0>         0.1005
     10 O1          1.4779    0.1075   -3.8526 O.3       1 <0>        -0.2513
     11 C9          2.5964   -0.5967   -3.5711 C.ar      1 <0>         0.3421
     12 C10         2.8694   -0.9875   -2.2532 C.ar      1 <0>        -0.1746
     13 C11         4.0017   -1.7702   -1.9990 C.ar      1 <0>         0.0115
     14 C12         4.8262   -2.0984   -3.0616 C.ar      1 <0>        -0.1826
     15 C13         4.5099   -1.6467   -4.3296 C.ar      1 <0>         0.1571
     16 N2          3.4283   -0.9243   -4.5478 N.ar      1 <0>        -0.4873
     17 C14         2.0088   -0.5576   -1.1476 C.2       1 <0>         0.3672
     18 S1          2.7674   -0.1387    0.3289 S.2       1 <0>        -0.5378
     19 C15        -2.6809   -1.7109   -5.6008 C.3       1 <0>        -0.1183
     20 C16        -1.7362   -1.8145   -0.6908 C.3       1 <0>        -0.1322
     21 H1          1.1028    1.8469    0.0849 H         1 <0>         0.0760
     22 H2         -0.4250    1.9425   -0.8233 H         1 <0>         0.0543
     23 H3         -0.4496    1.8773    0.9553 H         1 <0>         0.0811
     24 H4          0.4859   -0.4180    0.8840 H         1 <0>         0.1219
     25 H5         -1.0419   -0.3223   -0.0242 H         1 <0>         0.1246
     26 H6         -3.0859   -2.2445   -2.9847 H         1 <0>         0.1430
     27 H7         -0.2763   -0.4879   -5.6667 H         1 <0>         0.1477
     28 H8          4.2268   -2.1094   -0.9987 H         1 <0>         0.1612
     29 H9          5.7076   -2.7016   -2.9018 H         1 <0>         0.1567
     30 H10         5.1606   -1.8899   -5.1565 H         1 <0>         0.1766
     31 H11        -3.3606   -0.8757   -5.7698 H         1 <0>         0.0807
     32 H12        -2.0817   -1.8784   -6.4958 H         1 <0>         0.0741
     33 H13        -3.2571   -2.6084   -5.3761 H         1 <0>         0.0750
     34 H14        -2.3773   -1.0352   -0.2789 H         1 <0>         0.0915
     35 H15        -2.2812   -2.7582   -0.7151 H         1 <0>         0.0828
     36 H16        -0.8493   -1.9231   -0.0665 H         1 <0>         0.0787
@<TRIPOS>BOND
     1    1    2 1
     2    1   21 1
     3    1   22 1
     4    1   23 1
     5    2    3 1
     6    2   24 1
     7    2   25 1
     8    3   17 1
     9    3    4 1
    10    4    9 ar
    11    4    5 ar
    12    5    6 ar
    13    5   20 1
    14    6    7 ar
    15    6   26 1
    16    7    8 ar
    17    7   19 1
    18    8    9 ar
    19    8   27 1
    20    9   10 1
    21   10   11 1
    22   11   16 ar
    23   11   12 ar
    24   12   13 ar
    25   12   17 1
    26   13   14 ar
    27   13   28 1
    28   14   15 ar
    29   14   29 1
    30   15   16 ar
    31   15   30 1
    32   17   18 2
    33   19   31 1
    34   19   32 1
    35   19   33 1
    36   20   34 1
    37   20   35 1
    38   20   36 1
@<TRIPOS>MOLECULE
CHEMBL320557
   42    45     0     0     0
SMALL
USER_CHARGES

@<TRIPOS>ATOM
      1 C1         -0.0213    1.3980    0.0177 C.ar      1 <0>        -0.1152
      2 C2          1.1670    2.1084    0.0103 C.ar      1 <0>        -0.0769
      3 C3          2.3752    1.4421   -0.0081 C.ar      1 <0>        -0.1355
      4 C4          2.4033    0.0522   -0.0189 C.ar      1 <0>         0.1583
      5 C5          1.2054   -0.6630   -0.0111 C.ar      1 <0>         0.0817
      6 C6         -0.0053    0.0180    0.0070 C.ar      1 <0>        -0.0883
      7 N1          1.2197   -2.0575   -0.0214 N.pl3     1 <0>        -0.3772
      8 C7          0.2344   -2.9924   -0.0175 C.2       1 <0>        -0.0150
      9 C8          0.8390   -4.2066   -0.0335 C.2       1 <0>        -0.0070
     10 N2          2.1573   -4.0207   -0.0469 N.2       1 <0>        -0.4052
     11 C9          2.4129   -2.7289   -0.0399 C.2       1 <0>         0.1355
     12 C10         3.6692   -1.9625   -0.0484 C.2       1 <0>         0.6014
     13 O1          4.7396   -2.5410   -0.0646 O.2       1 <0>        -0.4753
     14 N3          3.6261   -0.6152   -0.0380 N.am      1 <0>        -0.5322
     15 C11         4.8738    0.1526   -0.0467 C.3       1 <0>         0.0931
     16 C12         5.3248    0.4093    1.3926 C.3       1 <0>         0.1082
     17 N4          6.5724    1.1770    1.3838 N.pl3     1 <0>        -0.6805
     18 C13         7.1598    1.5216    2.5468 C.2       1 <0>         0.5221
     19 S1          6.4480    1.0621    4.0345 S.2       1 <0>        -0.4905
     20 N5          8.3077    2.2279    2.5388 N.pl3     1 <0>        -0.6164
     21 C14         8.8576    2.6777    3.7378 C.ar      1 <0>         0.3531
     22 C15         9.9820    3.4955    3.7159 C.ar      1 <0>        -0.1915
     23 C16        10.5180    3.9350    4.9131 C.ar      1 <0>        -0.0241
     24 C17         9.9081    3.5396    6.0970 C.ar      1 <0>        -0.1678
     25 C18         8.7933    2.7255    6.0440 C.ar      1 <0>         0.1562
     26 N6          8.3015    2.3266    4.8865 N.ar      1 <0>        -0.4037
     27 Br1        10.5972    4.1090    7.7634 Br        1 <0>        -0.0370
     28 H1         -0.9637    1.9253    0.0363 H         1 <0>         0.1418
     29 H2          1.1482    3.1882    0.0187 H         1 <0>         0.1414
     30 H3          3.2995    2.0006   -0.0144 H         1 <0>         0.1428
     31 H4         -0.9344   -0.5326    0.0131 H         1 <0>         0.1415
     32 H5         -0.8290   -2.8047   -0.0036 H         1 <0>         0.1925
     33 H6          0.3361   -5.1624   -0.0349 H         1 <0>         0.1929
     34 H7          5.6436   -0.4112   -0.5737 H         1 <0>         0.1104
     35 H8          4.7109    1.1047   -0.5517 H         1 <0>         0.1035
     36 H9          4.5549    0.9730    1.9195 H         1 <0>         0.0966
     37 H10         5.4876   -0.5429    1.8976 H         1 <0>         0.0986
     38 H11         6.9758    1.4374    0.5409 H         1 <0>         0.3977
     39 H12         8.7510    2.4233    1.6984 H         1 <0>         0.4109
     40 H13        10.4310    3.7835    2.7768 H         1 <0>         0.1418
     41 H14        11.3909    4.5708    4.9271 H         1 <0>         0.1488
     42 H15         8.3155    2.4153    6.9616 H         1 <0>         0.1688
@<TRIPOS>BOND
     1    1    6 ar
     2    1    2 ar
     3    1   28 1
     4    2    3 ar
     5    2   29 1
     6    3    4 ar
     7    3   30 1
     8    4   14 1
     9    4    5 ar
    10    5    6 ar
    11    5    7 1
    12    6   31 1
    13    7   11 1
    14    7    8 1
    15    8    9 2
    16    8   32 1
    17    9   10 1
    18    9   33 1
    19   10   11 2
    20   11   12 1
    21   12   13 2
    22   12   14 am
    23   14   15 1
    24   15   16 1
    25   15   34 1
    26   15   35 1
    27   16   17 1
    28   16   36 1
    29   16   37 1
    30   17   18 1
    31   17   38 1
    32   18   19 2
    33   18   20 1
    34   20   21 1
    35   20   39 1
    36   21   26 ar
    37   21   22 ar
    38   22   23 ar
    39   22   40 1
    40   23   24 ar
    41   23   41 1
    42   24   25 ar
    43   24   27 1
    44   25   26 ar
    45   25   42 1
@<TRIPOS>MOLECULE
CHEMBL107535
   42    45     0     0     0
SMALL
USER_CHARGES

@<TRIPOS>ATOM
      1 C1         -0.0351    1.3858    0.0179 C.ar      1 <0>        -0.1400
      2 C2          1.1659    2.0782    0.0073 C.ar      1 <0>        -0.0934
      3 C3          2.3500    1.3486   -0.0111 C.ar      1 <0>         0.1114
      4 C4          2.2893   -0.0456   -0.0182 C.ar      1 <0>         0.3079
      5 N1          1.1178   -0.6635   -0.0079 N.ar      1 <0>        -0.4663
      6 C5         -0.0191    0.0038    0.0100 C.ar      1 <0>         0.1121
      7 N2          3.4664   -0.7960   -0.0367 N.pl3     1 <0>        -0.3726
      8 C6          3.6915   -2.1345   -0.0473 C.2       1 <0>         0.0594
      9 C7          5.0282   -2.3551   -0.0646 C.2       1 <0>        -0.1963
     10 C8          5.6698   -1.1123   -0.0649 C.2       1 <0>        -0.0725
     11 C9          4.6851   -0.1493   -0.0474 C.2       1 <0>        -0.0747
     12 C10         4.7287    1.3144   -0.0393 C.2       1 <0>         0.5886
     13 O1          5.7981    1.8964   -0.0485 O.2       1 <0>        -0.4969
     14 N3          3.5752    2.0126   -0.0227 N.am      1 <0>        -0.5366
     15 C11         3.6101    3.4771   -0.0158 C.3       1 <0>         0.0921
     16 C12         3.6398    3.9798    1.4290 C.3       1 <0>         0.1092
     17 N4          3.6747    5.4443    1.4359 N.pl3     1 <0>        -0.6808
     18 C13         3.7050    6.1122    2.6061 C.2       1 <0>         0.5219
     19 S1          3.7025    5.2490    4.0846 S.2       1 <0>        -0.4909
     20 N5          3.7371    7.4596    2.6125 N.pl3     1 <0>        -0.6165
     21 C14         3.6588    8.1528    3.8190 C.ar      1 <0>         0.3530
     22 C15         3.5846    9.5414    3.8119 C.ar      1 <0>        -0.1915
     23 C16         3.5072   10.2174    5.0164 C.ar      1 <0>        -0.0240
     24 C17         3.5067    9.4779    6.1925 C.ar      1 <0>        -0.1677
     25 C18         3.5828    8.1003    6.1248 C.ar      1 <0>         0.1561
     26 N6          3.6502    7.4830    4.9605 N.ar      1 <0>        -0.4038
     27 Br1         3.4034   10.3480    7.8682 Br        1 <0>        -0.0367
     28 H1         -0.9732    1.9205    0.0367 H         1 <0>         0.1537
     29 H2          1.1817    3.1581    0.0128 H         1 <0>         0.1519
     30 H3         -0.9531   -0.5383    0.0182 H         1 <0>         0.1750
     31 H4          2.9290   -2.8994   -0.0424 H         1 <0>         0.1800
     32 H5          5.5127   -3.3202   -0.0758 H         1 <0>         0.1603
     33 H6          6.7360   -0.9402   -0.0766 H         1 <0>         0.1596
     34 H7          4.5022    3.8217   -0.5388 H         1 <0>         0.1098
     35 H8          2.7229    3.8641   -0.5170 H         1 <0>         0.0984
     36 H9          2.7477    3.6352    1.9520 H         1 <0>         0.0940
     37 H10         4.5270    3.5928    1.9302 H         1 <0>         0.0988
     38 H11         3.6761    5.9334    0.5982 H         1 <0>         0.3975
     39 H12         3.8148    7.9468    1.7773 H         1 <0>         0.4108
     40 H13         3.5877   10.0848    2.8786 H         1 <0>         0.1418
     41 H14         3.4489   11.2955    5.0418 H         1 <0>         0.1489
     42 H15         3.5827    7.5209    7.0362 H         1 <0>         0.1689
@<TRIPOS>BOND
     1    1    6 ar
     2    1    2 ar
     3    1   28 1
     4    2    3 ar
     5    2   29 1
     6    3   14 1
     7    3    4 ar
     8    4    5 ar
     9    4    7 1
    10    5    6 ar
    11    6   30 1
    12    7   11 1
    13    7    8 1
    14    8    9 2
    15    8   31 1
    16    9   10 1
    17    9   32 1
    18   10   11 2
    19   10   33 1
    20   11   12 1
    21   12   13 2
    22   12   14 am
    23   14   15 1
    24   15   16 1
    25   15   34 1
    26   15   35 1
    27   16   17 1
    28   16   36 1
    29   16   37 1
    30   17   18 1
    31   17   38 1
    32   18   19 2
    33   18   20 1
    34   20   21 1
    35   20   39 1
    36   21   26 ar
    37   21   22 ar
    38   22   23 ar
    39   22   40 1
    40   23   24 ar
    41   23   41 1
    42   24   25 ar
    43   24   27 1
    44   25   26 ar
    45   25   42 1
@<TRIPOS>MOLECULE
CHEMBL340193
   67    71     0     0     0
SMALL
USER_CHARGES

@<TRIPOS>ATOM
      1 C1         -0.4218    2.6015   -0.6819 C.3       1 <0>         0.0958
      2 N1         -0.2575    1.2126   -0.2459 N.pl3     1 <0>        -0.6638
      3 C2         -0.1376    0.9179    1.1100 C.ar      1 <0>         0.3201
      4 C3          1.1070    1.0281    1.7362 C.ar      1 <0>         0.2219
      5 C4          1.2082    0.7304    3.0883 C.ar      1 <0>        -0.0883
      6 C5          0.0627    0.3335    3.7657 C.ar      1 <0>        -0.0767
      7 C6         -1.1325    0.2471    3.0819 C.ar      1 <0>         0.0698
      8 N2         -1.2033    0.5411    1.7962 N.ar      1 <0>        -0.4159
      9 N3          2.2344    1.4321    1.0109 N.pl3     1 <0>        -0.6990
     10 C7          3.5096    1.6476    1.6991 C.3       1 <0>         0.1428
     11 C8          4.5698    2.0807    0.6845 C.3       1 <0>        -0.1849
     12 C9          5.7656    1.1503    0.4716 C.3       1 <0>        -0.1710
     13 C10         5.9474    2.4695    1.2248 C.3       1 <0>        -0.1617
     14 C11        -0.2193    0.1336   -1.2362 C.3       1 <0>         0.1615
     15 C12        -1.5135    0.1452   -2.0530 C.3       1 <0>        -0.1462
     16 C13        -1.4849   -1.0055   -3.0639 C.3       1 <0>         0.1156
     17 N4         -0.2615   -0.8963   -3.8702 N.am      1 <0>        -0.6211
     18 C14         1.0332   -0.8087   -3.1811 C.3       1 <0>         0.0829
     19 C15         0.9764    0.3397   -2.1689 C.3       1 <0>        -0.1430
     20 C16        -0.3256   -0.8772   -5.2163 C.2       1 <0>         0.5964
     21 O1         -1.4062   -0.8315   -5.7731 O.2       1 <0>        -0.5210
     22 C17         0.9106   -0.9117   -6.0119 C.2       1 <0>        -0.0190
     23 C18         1.0277   -0.5056   -7.3033 C.2       1 <0>        -0.1006
     24 C19         2.3737   -0.7013   -7.6970 C.ar      1 <0>        -0.0693
     25 C20         3.0684   -0.4690   -8.8916 C.ar      1 <0>        -0.1589
     26 C21         4.4129   -0.7711   -8.9695 C.ar      1 <0>         0.2602
     27 C22         5.0798   -1.3050   -7.8663 C.ar      1 <0>        -0.1775
     28 C23         4.4089   -1.5381   -6.6881 C.ar      1 <0>        -0.1021
     29 C24         3.0527   -1.2403   -6.5874 C.ar      1 <0>         0.0356
     30 N5          2.1389   -1.3564   -5.5637 N.pl3     1 <0>        -0.5943
     31 H1          2.3267   -1.6963   -4.6748 H         1 <0>         0.4054
     32 N6          5.1105   -0.5411  -10.1608 N.2       1 <0>        -1.0970
     33 S1          6.7237   -0.9022  -10.2585 S.o2      1 <0>         2.5231
     34 O2          7.3473   -0.0312   -9.3248 O.2       1 <0>        -1.0349
     35 O3          6.7906   -2.3117  -10.0910 O.2       1 <0>        -1.0331
     36 C25         7.2008   -0.4506  -11.9494 C.3       1 <0>        -0.6352
     37 H2          0.5572    3.0721   -0.7725 H         1 <0>         0.0566
     38 H3         -0.9254    2.6218   -1.6483 H         1 <0>         0.0893
     39 H4         -1.0193    3.1440    0.0507 H         1 <0>         0.0644
     40 H5          2.1556    0.8054    3.6013 H         1 <0>         0.1697
     41 H6          0.1070    0.0943    4.8180 H         1 <0>         0.1832
     42 H7         -2.0245   -0.0614    3.6069 H         1 <0>         0.2029
     43 H8          2.1711    1.5692    0.0527 H         1 <0>         0.4178
     44 H9          3.3887    2.4256    2.4528 H         1 <0>         0.0811
     45 H10         3.8239    0.7213    2.1801 H         1 <0>         0.0789
     46 H11         4.1963    2.6270   -0.1816 H         1 <0>         0.1138
     47 H12         5.7970    0.2296    1.0542 H         1 <0>         0.0992
     48 H13         6.1789    1.0842   -0.5349 H         1 <0>         0.1042
     49 H14         6.4804    3.2714    0.7139 H         1 <0>         0.1048
     50 H15         6.0984    2.4168    2.3030 H         1 <0>         0.1003
     51 H16        -0.1208   -0.8244   -0.7258 H         1 <0>         0.0867
     52 H17        -2.3662    0.0218   -1.3853 H         1 <0>         0.0757
     53 H18        -1.6004    1.0934   -2.5834 H         1 <0>         0.0820
     54 H19        -1.4893   -1.9578   -2.5337 H         1 <0>         0.0683
     55 H20        -2.3577   -0.9427   -3.7138 H         1 <0>         0.1045
     56 H21         1.2342   -1.7450   -2.6605 H         1 <0>         0.0721
     57 H22         1.8219   -0.6161   -3.9084 H         1 <0>         0.1163
     58 H23         0.8660    1.2861   -2.6983 H         1 <0>         0.0834
     59 H24         1.8959    0.3548   -1.5838 H         1 <0>         0.0768
     60 H25         0.2360   -0.1053   -7.9191 H         1 <0>         0.1441
     61 H26         2.5544   -0.0561   -9.7470 H         1 <0>         0.1168
     62 H27         6.1320   -1.5378   -7.9381 H         1 <0>         0.1112
     63 H28         4.9348   -1.9520   -5.8405 H         1 <0>         0.1042
     64 H29         7.0150    0.6117  -12.1079 H         1 <0>         0.1156
     65 H30         8.2604   -0.6600  -12.0961 H         1 <0>         0.1015
     66 H31         6.6137   -1.0321  -12.6601 H         1 <0>         0.1161
     67 H32        -2.0583    0.4753    1.3428 H         1 <0>         0.4418
@<TRIPOS>BOND
     1    1    2 1
     2    1   37 1
     3    1   38 1
     4    1   39 1
     5    2    3 1
     6    2   14 1
     7    3    8 ar
     8    3    4 ar
     9    4    5 ar
    10    4    9 1
    11    5    6 ar
    12    5   40 1
    13    6    7 ar
    14    6   41 1
    15    7    8 ar
    16    7   42 1
    17    8   67 1
    18    9   10 1
    19    9   43 1
    20   10   11 1
    21   10   44 1
    22   10   45 1
    23   11   13 1
    24   11   12 1
    25   11   46 1
    26   12   13 1
    27   12   47 1
    28   12   48 1
    29   13   49 1
    30   13   50 1
    31   14   19 1
    32   14   15 1
    33   14   51 1
    34   15   16 1
    35   15   52 1
    36   15   53 1
    37   16   17 1
    38   16   54 1
    39   16   55 1
    40   17   18 1
    41   17   20 am
    42   18   19 1
    43   18   56 1
    44   18   57 1
    45   19   58 1
    46   19   59 1
    47   20   21 2
    48   20   22 1
    49   22   30 1
    50   22   23 2
    51   23   24 1
    52   23   60 1
    53   24   29 ar
    54   24   25 ar
    55   25   26 ar
    56   25   61 1
    57   26   27 ar
    58   26   32 1
    59   27   28 ar
    60   27   62 1
    61   28   29 ar
    62   28   63 1
    63   29   30 1
    64   30   31 1
    65   32   33 1
    66   33   34 2
    67   33   35 2
    68   33   36 1
    69   36   64 1
    70   36   65 1
    71   36   66 1
@<TRIPOS>MOLECULE
CHEMBL140665
   44    47     0     0     0
SMALL
USER_CHARGES

@<TRIPOS>ATOM
      1 C1         -0.3925    1.5059    0.2993 C.3       1 <0>        -0.1540
      2 C2         -0.3587   -0.0237    0.2972 C.3       1 <0>        -0.0995
      3 C3          0.7421   -0.5109    1.2415 C.3       1 <0>         0.1350
      4 C4          0.4094   -0.0848    2.6247 C.2       1 <0>         0.4209
      5 O1         -0.7535    0.0787    2.9343 O.2       1 <0>        -0.4346
      6 C5          1.4218    0.1337    3.5887 C.2       1 <0>        -0.0916
      7 C6          1.1620    0.6261    4.8642 C.2       1 <0>        -0.0880
      8 C7          2.3913    0.7868    5.4993 C.2       1 <0>        -0.1998
      9 C8          3.3580    0.3905    4.6388 C.2       1 <0>         0.0317
     10 N1          2.7763   -0.0613    3.4882 N.pl3     1 <0>        -0.3586
     11 C9          3.5171   -0.6712    2.4646 C.ar      1 <0>         0.0817
     12 C10         4.6831   -1.3494    2.8031 C.ar      1 <0>        -0.1121
     13 C11         5.4524   -1.9488    1.8273 C.ar      1 <0>        -0.1060
     14 C12         5.0702   -1.8792    0.5000 C.ar      1 <0>        -0.0967
     15 C13         3.9109   -1.2147    0.1502 C.ar      1 <0>        -0.1058
     16 C14         3.1261   -0.6168    1.1232 C.ar      1 <0>         0.1148
     17 O2          1.9765   -0.0067    0.7968 O.3       1 <0>        -0.3025
     18 C15         0.7879   -2.0166    1.1972 C.ar      1 <0>        -0.0881
     19 C16         0.2986   -2.7542    2.2597 C.ar      1 <0>        -0.1417
     20 C17         0.3392   -4.1355    2.2220 C.ar      1 <0>        -0.0736
     21 C18         0.8694   -4.7825    1.1224 C.ar      1 <0>        -0.1960
     22 C19         1.3609   -4.0449    0.0554 C.ar      1 <0>         0.1319
     23 C20         1.3134   -2.6587    0.0930 C.ar      1 <0>        -0.1232
     24 O3          1.8829   -4.6790   -1.0274 O.3       1 <0>        -0.3136
     25 C21         1.8939   -6.1077   -0.9997 C.3       1 <0>         0.0260
     26 H1          0.5705    1.8910   -0.0359 H         1 <0>         0.0634
     27 H2         -1.1767    1.8529   -0.3735 H         1 <0>         0.0648
     28 H3         -0.5953    1.8634    1.3088 H         1 <0>         0.0569
     29 H4         -1.3218   -0.4089    0.6324 H         1 <0>         0.0958
     30 H5         -0.1559   -0.3813   -0.7123 H         1 <0>         0.0831
     31 H6          0.1903    0.8432    5.2827 H         1 <0>         0.1564
     32 H7          2.5457    1.1610    6.5006 H         1 <0>         0.1537
     33 H8          4.4202    0.4264    4.8310 H         1 <0>         0.1755
     34 H9          4.9887   -1.4069    3.8373 H         1 <0>         0.1356
     35 H10         6.3559   -2.4737    2.1007 H         1 <0>         0.1375
     36 H11         5.6780   -2.3436   -0.2625 H         1 <0>         0.1386
     37 H12         3.6148   -1.1604   -0.8870 H         1 <0>         0.1417
     38 H13        -0.1156   -2.2503    3.1204 H         1 <0>         0.1243
     39 H14        -0.0435   -4.7094    3.0531 H         1 <0>         0.1306
     40 H15         0.9016   -5.8617    1.0938 H         1 <0>         0.1326
     41 H16         1.6910   -2.0822   -0.7386 H         1 <0>         0.1365
     42 H17         2.3356   -6.4855   -1.9217 H         1 <0>         0.1032
     43 H18         2.4819   -6.4501   -0.1481 H         1 <0>         0.0563
     44 H19         0.8725   -6.4772   -0.9081 H         1 <0>         0.0569
@<TRIPOS>BOND
     1    1    2 1
     2    1   26 1
     3    1   27 1
     4    1   28 1
     5    2    3 1
     6    2   29 1
     7    2   30 1
     8    3   17 1
     9    3    4 1
    10    3   18 1
    11    4    5 2
    12    4    6 1
    13    6   10 1
    14    6    7 2
    15    7    8 1
    16    7   31 1
    17    8    9 2
    18    8   32 1
    19    9   10 1
    20    9   33 1
    21   10   11 1
    22   11   16 ar
    23   11   12 ar
    24   12   13 ar
    25   12   34 1
    26   13   14 ar
    27   13   35 1
    28   14   15 ar
    29   14   36 1
    30   15   16 ar
    31   15   37 1
    32   16   17 1
    33   18   23 ar
    34   18   19 ar
    35   19   20 ar
    36   19   38 1
    37   20   21 ar
    38   20   39 1
    39   21   22 ar
    40   21   40 1
    41   22   23 ar
    42   22   24 1
    43   23   41 1
    44   24   25 1
    45   25   42 1
    46   25   43 1
    47   25   44 1
@<TRIPOS>MOLECULE
CHEMBL140665__1
   44    47     0     0     0
SMALL
USER_CHARGES

@<TRIPOS>ATOM
      1 C1         -1.3069   -0.7826   -0.1446 C.3       1 <0>        -0.1566
      2 C2          0.0021   -0.0041    0.0020 C.3       1 <0>        -0.1485
      3 C3          0.6951   -0.4121    1.3036 C.3       1 <0>         0.1355
      4 C4          2.0290    0.2381    1.3599 C.2       1 <0>         0.4126
      5 O1          2.9947   -0.3432    0.9077 O.2       1 <0>        -0.4269
      6 C5          2.1960    1.5223    1.9301 C.2       1 <0>        -0.0910
      7 C6          3.4397    2.1256    2.0911 C.2       1 <0>        -0.0856
      8 C7          3.2265    3.3331    2.7520 C.2       1 <0>        -0.1994
      9 C8          1.8964    3.4585    2.9687 C.2       1 <0>         0.0320
     10 N1          1.2503    2.3851    2.4239 N.pl3     1 <0>        -0.3624
     11 C9         -0.1493    2.3054    2.3643 C.ar      1 <0>         0.0777
     12 C10        -0.8790    3.4874    2.2985 C.ar      1 <0>        -0.1113
     13 C11        -2.2577    3.4573    2.2565 C.ar      1 <0>        -0.1053
     14 C12        -2.9279    2.2478    2.2807 C.ar      1 <0>        -0.0974
     15 C13        -2.2156    1.0657    2.3391 C.ar      1 <0>        -0.1101
     16 C14        -0.8304    1.0843    2.3727 C.ar      1 <0>         0.1156
     17 O2         -0.1301   -0.0602    2.3858 O.3       1 <0>        -0.3034
     18 C15         0.8853   -1.9070    1.3039 C.ar      1 <0>        -0.0328
     19 C16         1.0603   -2.5813    0.1093 C.ar      1 <0>        -0.1276
     20 C17         1.2351   -3.9527    0.1061 C.ar      1 <0>        -0.0798
     21 C18         1.2349   -4.6530    1.2971 C.ar      1 <0>        -0.1988
     22 C19         1.0596   -3.9790    2.4967 C.ar      1 <0>         0.1263
     23 C20         0.8905   -2.6018    2.4976 C.ar      1 <0>        -0.1214
     24 O3          1.0591   -4.6656    3.6694 O.3       1 <0>        -0.3162
     25 C21         1.2445   -6.0805    3.5929 C.3       1 <0>         0.0266
     26 H1         -1.9101   -0.6516    0.7537 H         1 <0>         0.0655
     27 H2         -1.8565   -0.4098   -1.0090 H         1 <0>         0.0644
     28 H3         -1.0865   -1.8411   -0.2831 H         1 <0>         0.0700
     29 H4          0.6542   -0.2275   -0.8423 H         1 <0>         0.0891
     30 H5         -0.2113    1.0646    0.0235 H         1 <0>         0.0749
     31 H6          4.3911    1.7316    1.7653 H         1 <0>         0.1565
     32 H7          3.9875    4.0432    3.0402 H         1 <0>         0.1541
     33 H8          1.4215    4.2766    3.4900 H         1 <0>         0.1762
     34 H9         -0.3627    4.4358    2.2805 H         1 <0>         0.1373
     35 H10        -2.8151    4.3809    2.2048 H         1 <0>         0.1391
     36 H11        -4.0074    2.2275    2.2545 H         1 <0>         0.1400
     37 H12        -2.7409    0.1223    2.3592 H         1 <0>         0.1440
     38 H13         1.0601   -2.0357   -0.8228 H         1 <0>         0.1275
     39 H14         1.3716   -4.4770   -0.8282 H         1 <0>         0.1304
     40 H15         1.3708   -5.7244    1.2940 H         1 <0>         0.1305
     41 H16         0.7585   -2.0741    3.4306 H         1 <0>         0.1346
     42 H17         1.2233   -6.5045    4.5969 H         1 <0>         0.1014
     43 H18         0.4454   -6.5199    2.9960 H         1 <0>         0.0562
     44 H19         2.2063   -6.2962    3.1277 H         1 <0>         0.0563
@<TRIPOS>BOND
     1    1    2 1
     2    1   26 1
     3    1   27 1
     4    1   28 1
     5    2    3 1
     6    2   29 1
     7    2   30 1
     8    3   17 1
     9    3    4 1
    10    3   18 1
    11    4    5 2
    12    4    6 1
    13    6   10 1
    14    6    7 2
    15    7    8 1
    16    7   31 1
    17    8    9 2
    18    8   32 1
    19    9   10 1
    20    9   33 1
    21   10   11 1
    22   11   16 ar
    23   11   12 ar
    24   12   13 ar
    25   12   34 1
    26   13   14 ar
    27   13   35 1
    28   14   15 ar
    29   14   36 1
    30   15   16 ar
    31   15   37 1
    32   16   17 1
    33   18   23 ar
    34   18   19 ar
    35   19   20 ar
    36   19   38 1
    37   20   21 ar
    38   20   39 1
    39   21   22 ar
    40   21   40 1
    41   22   23 ar
    42   22   24 1
    43   23   41 1
    44   24   25 1
    45   25   42 1
    46   25   43 1
    47   25   44 1
@<TRIPOS>MOLECULE
CHEMBL356278
   47    51     0     0     0
SMALL
USER_CHARGES

@<TRIPOS>ATOM
      1 C1         -0.0167    1.3786    0.0096 C.ar      1 <0>        -0.1833
      2 C2          1.1793    2.0757    0.0019 C.ar      1 <0>        -0.0020
      3 C3          2.3744    1.3475   -0.0056 C.ar      1 <0>        -0.2128
      4 C4          2.3114   -0.0544    0.0273 C.ar      1 <0>         0.4141
      5 N1          1.1396   -0.6716    0.0084 N.ar      1 <0>        -0.4906
      6 C5          0.0021   -0.0041    0.0020 C.ar      1 <0>         0.1588
      7 N2          3.4787   -0.7938    0.1228 N.pl3     1 <0>        -0.5542
      8 C6          4.3171   -0.6097    1.2223 C.ar      1 <0>         0.3820
      9 C7          4.8998    0.6297    1.4734 C.ar      1 <0>         0.1087
     10 C8          5.6858    0.7858    2.6105 C.ar      1 <0>        -0.1239
     11 C9          5.8839   -0.3112    3.4374 C.ar      1 <0>        -0.1305
     12 C10         5.2994   -1.5171    3.1094 C.ar      1 <0>         0.1259
     13 N3          4.5457   -1.6338    2.0327 N.ar      1 <0>        -0.4449
     14 C11         6.3089    2.1184    2.9379 C.3       1 <0>         0.0487
     15 N4          5.3046    2.9875    3.5656 N.4       1 <0>        -0.3960
     16 C12         4.9520    2.4723    4.9134 C.3       1 <0>        -0.0069
     17 C13         4.3769    3.7196    5.6304 C.3       1 <0>        -0.1450
     18 C14         5.2739    4.8642    5.1058 C.3       1 <0>        -0.1437
     19 C15         5.8647    4.3387    3.7843 C.3       1 <0>        -0.0109
     20 N5          4.7579    1.7005    0.5942 N.am      1 <0>        -0.6622
     21 C16         3.6605    2.0480   -0.0608 C.2       1 <0>         0.5787
     22 O1          3.7257    3.0338   -0.7695 O.2       1 <0>        -0.5025
     23 C17         3.8292   -1.7604   -0.9208 C.3       1 <0>         0.0910
     24 C18         2.9764   -1.7689   -2.1911 C.3       1 <0>        -0.1787
     25 C19         2.8510   -2.9084   -1.1778 C.3       1 <0>        -0.1749
     26 H1         -0.9566    1.9102    0.0259 H         1 <0>         0.1548
     27 H2          1.1898    3.1557    0.0014 H         1 <0>         0.1509
     28 H3         -0.9314   -0.5471   -0.0090 H         1 <0>         0.1742
     29 H4          6.4886   -0.2218    4.3278 H         1 <0>         0.1575
     30 H5          5.4612   -2.3772    3.7422 H         1 <0>         0.1798
     31 H6          7.1421    1.9708    3.6250 H         1 <0>         0.1516
     32 H7          6.6715    2.5848    2.0219 H         1 <0>         0.1358
     33 H8          4.1979    1.6886    4.8405 H         1 <0>         0.1320
     34 H9          5.8395    2.1067    5.4298 H         1 <0>         0.1383
     35 H10         3.3374    3.8829    5.3460 H         1 <0>         0.0970
     36 H11         4.4710    3.6205    6.7118 H         1 <0>         0.1197
     37 H12         4.6784    5.7589    4.9247 H         1 <0>         0.1064
     38 H13         6.0709    5.0771    5.8183 H         1 <0>         0.1069
     39 H14         6.9507    4.2829    3.8593 H         1 <0>         0.1356
     40 H15         5.5799    4.9962    2.9629 H         1 <0>         0.1335
     41 H16         5.5444    2.2485    0.4461 H         1 <0>         0.4097
     42 H17         4.8931   -1.9723   -1.0271 H         1 <0>         0.1306
     43 H18         2.1545   -1.0554   -2.2503 H         1 <0>         0.0929
     44 H19         3.4792   -1.9864   -3.1334 H         1 <0>         0.1082
     45 H20         3.2714   -3.8756   -1.4535 H         1 <0>         0.1021
     46 H21         1.9467   -2.9446   -0.5704 H         1 <0>         0.1141
     47 H22         4.4803    3.0421    2.9863 H         1 <0>         0.4234
@<TRIPOS>BOND
     1    1    6 ar
     2    1    2 ar
     3    1   26 1
     4    2    3 ar
     5    2   27 1
     6    3   21 1
     7    3    4 ar
     8    4    5 ar
     9    4    7 1
    10    5    6 ar
    11    6   28 1
    12    7    8 1
    13    7   23 1
    14    8   13 ar
    15    8    9 ar
    16    9   10 ar
    17    9   20 1
    18   10   11 ar
    19   10   14 1
    20   11   12 ar
    21   11   29 1
    22   12   13 ar
    23   12   30 1
    24   14   15 1
    25   14   31 1
    26   14   32 1
    27   15   19 1
    28   15   16 1
    29   15   47 1
    30   16   17 1
    31   16   33 1
    32   16   34 1
    33   17   18 1
    34   17   35 1
    35   17   36 1
    36   18   19 1
    37   18   37 1
    38   18   38 1
    39   19   39 1
    40   19   40 1
    41   20   21 am
    42   20   41 1
    43   21   22 2
    44   23   25 1
    45   23   24 1
    46   23   42 1
    47   24   25 1
    48   24   43 1
    49   24   44 1
    50   25   45 1
    51   25   46 1
@<TRIPOS>MOLECULE
CHEMBL335202
   31    32     0     0     0
SMALL
USER_CHARGES

@<TRIPOS>ATOM
      1 C1          1.1305   -0.7104   -0.0236 C.ar      1 <0>        -0.0440
      2 C2          2.3506   -0.0576   -0.0282 C.ar      1 <0>        -0.1847
      3 C3          2.3742    1.3322   -0.0180 C.ar      1 <0>         0.3417
      4 N1          1.2468    2.0259   -0.0042 N.ar      1 <0>        -0.3972
      5 C4          0.0689    1.4321    0.0004 C.ar      1 <0>         0.1375
      6 C5         -0.0295    0.0535   -0.0090 C.ar      1 <0>        -0.1100
      7 Cl1        -1.5861   -0.7150   -0.0028 Cl        1 <0>        -0.0573
      8 N2          3.5967    2.0019   -0.0220 N.pl3     1 <0>        -0.6167
      9 C6          3.6285    3.3459   -0.1173 C.2       1 <0>         0.5218
     10 S1          2.1687    4.2402   -0.0988 S.2       1 <0>        -0.4950
     11 N3          4.8095    3.9860   -0.2271 N.pl3     1 <0>        -0.6841
     12 C7          4.8441    5.4469   -0.3306 C.3       1 <0>         0.1271
     13 C8          6.2960    5.9159   -0.4436 C.3       1 <0>        -0.0624
     14 C9          6.3316    7.4188   -0.5501 C.2       1 <0>         0.0695
     15 C10         6.4168    8.2910    0.4950 C.2       1 <0>        -0.1191
     16 C11         6.4199    9.6319   -0.1075 C.2       1 <0>        -0.1746
     17 C12         6.3376    9.4413   -1.4334 C.2       1 <0>        -0.0149
     18 O1          6.2908    8.1241   -1.6862 O.3       1 <0>        -0.1624
     19 C13         6.4877    7.9680    1.8883 C.1       1 <0>         0.2771
     20 N4          6.5439    7.7117    2.9936 N.1       1 <0>        -0.4070
     21 H1          1.0812   -1.7892   -0.0357 H         1 <0>         0.1493
     22 H2          3.2723   -0.6205   -0.0391 H         1 <0>         0.1416
     23 H3         -0.8300    2.0307    0.0122 H         1 <0>         0.1694
     24 H4          4.4245    1.5006    0.0438 H         1 <0>         0.4104
     25 H5          5.6366    3.4793   -0.2376 H         1 <0>         0.3976
     26 H6          4.2907    5.7616   -1.2154 H         1 <0>         0.1000
     27 H7          4.3888    5.8850    0.5575 H         1 <0>         0.0950
     28 H8          6.8494    5.6012    0.4412 H         1 <0>         0.1047
     29 H9          6.7514    5.4779   -1.3317 H         1 <0>         0.1042
     30 H10         6.4761   10.5775    0.4111 H         1 <0>         0.1652
     31 H11         6.3166   10.2229   -2.1783 H         1 <0>         0.2175
@<TRIPOS>BOND
     1    1    6 ar
     2    1    2 ar
     3    1   21 1
     4    2    3 ar
     5    2   22 1
     6    3    4 ar
     7    3    8 1
     8    4    5 ar
     9    5    6 ar
    10    5   23 1
    11    6    7 1
    12    8    9 1
    13    8   24 1
    14    9   10 2
    15    9   11 1
    16   11   12 1
    17   11   25 1
    18   12   13 1
    19   12   26 1
    20   12   27 1
    21   13   14 1
    22   13   28 1
    23   13   29 1
    24   14   18 1
    25   14   15 2
    26   15   16 1
    27   15   19 1
    28   16   17 2
    29   16   30 1
    30   17   18 1
    31   17   31 1
    32   19   20 3
@<TRIPOS>MOLECULE
CHEMBL287942
   60    63     0     0     0
SMALL
USER_CHARGES

@<TRIPOS>ATOM
      1 C1         -0.9077    1.9317   -0.1532 C.3       1 <0>        -0.0825
      2 C2         -0.6673    0.4440   -0.1567 C.2       1 <0>        -0.2678
      3 C3         -1.7059   -0.4170   -0.0996 C.2       1 <0>         0.1868
      4 N1         -1.4698   -1.7648   -0.1036 N.am      1 <0>        -0.5266
      5 C4         -0.2126   -2.2401   -0.1634 C.2       1 <0>         0.7037
      6 O1         -0.0255   -3.4415   -0.1654 O.2       1 <0>        -0.5383
      7 N2          0.8410   -1.4044   -0.2215 N.am      1 <0>        -0.6566
      8 H1          1.7409   -1.7639   -0.2649 H         1 <0>         0.4325
      9 C5          0.6502   -0.0696   -0.2257 C.2       1 <0>         0.5541
     10 O2          1.6025    0.6872   -0.2834 O.2       1 <0>        -0.5100
     11 C6         -2.5966   -2.6990   -0.0416 C.3       1 <0>         0.3179
     12 C7         -2.6837   -3.5362   -1.3432 C.3       1 <0>        -0.1729
     13 C8         -4.1790   -3.9357   -1.3723 C.3       1 <0>         0.1151
     14 C9         -4.8650   -2.8982   -0.4625 C.3       1 <0>         0.0889
     15 O3         -3.8500   -1.9829   -0.0173 O.3       1 <0>        -0.3460
     16 C10        -5.9370   -2.1430   -1.2508 C.3       1 <0>         0.0579
     17 O4         -6.6764   -1.3015   -0.3636 O.3       1 <0>        -0.5613
     18 N3         -4.7063   -3.8497   -2.7364 N.am      1 <0>        -0.5486
     19 C11        -4.5122   -2.7298   -3.4620 C.2       1 <0>         0.5481
     20 O5         -3.9006   -1.7892   -2.9886 O.2       1 <0>        -0.4824
     21 C12        -5.0258   -2.6579   -4.7793 C.2       1 <0>        -0.2550
     22 C13        -5.6998   -3.7152   -5.2803 C.2       1 <0>         0.1700
     23 N4         -5.8750   -4.8333   -4.5113 N.am      1 <0>        -0.5255
     24 C14        -5.3776   -4.8910   -3.2625 C.2       1 <0>         0.7026
     25 O6         -5.5408   -5.8961   -2.5981 O.2       1 <0>        -0.5298
     26 C15        -6.6068   -5.9803   -5.0545 C.3       1 <0>         0.3041
     27 C16        -8.0677   -5.5806   -5.3810 C.3       1 <0>        -0.1899
     28 C17        -8.4235   -6.6282   -6.4709 C.3       1 <0>         0.0780
     29 C18        -7.0760   -6.8113   -7.2016 C.3       1 <0>         0.1092
     30 O7         -6.0389   -6.3845   -6.3106 O.3       1 <0>        -0.3550
     31 C19        -6.8769   -8.2850   -7.5617 C.3       1 <0>         0.0682
     32 O8         -5.6860   -8.4288   -8.3383 O.3       1 <0>        -0.5613
     33 N5         -9.4443   -6.1059   -7.3827 N.2       1 <0>        -0.3933
     34 N6        -10.4836   -5.9028   -7.0058 N.1       1 <0>         0.2992
     35 N7        -11.5007   -5.7040   -6.6369 N.1       1 <0>        -0.1453
     36 C20        -4.8232   -1.4177   -5.6112 C.3       1 <0>        -0.0815
     37 H2          0.0473    2.4541   -0.2091 H         1 <0>         0.0796
     38 H3         -1.5210    2.2026   -1.0127 H         1 <0>         0.0702
     39 H4         -1.4233    2.2143    0.7646 H         1 <0>         0.0701
     40 H5         -2.7181   -0.0436   -0.0506 H         1 <0>         0.1847
     41 H6         -2.5082   -3.3479    0.8297 H         1 <0>         0.1157
     42 H7         -2.4256   -2.9315   -2.2126 H         1 <0>         0.1114
     43 H8         -2.0465   -4.4184   -1.2816 H         1 <0>         0.1107
     44 H9         -4.3132   -4.9411   -0.9731 H         1 <0>         0.1418
     45 H10        -5.3157   -3.3977    0.3951 H         1 <0>         0.1021
     46 H11        -5.4611   -1.5326   -2.0184 H         1 <0>         0.0852
     47 H12        -6.6125   -2.8572   -1.7216 H         1 <0>         0.0473
     48 H13        -7.3748   -0.7913   -0.7961 H         1 <0>         0.3827
     49 H14        -6.0990   -3.6784   -6.2831 H         1 <0>         0.1788
     50 H15        -6.5888   -6.8093   -4.3470 H         1 <0>         0.1382
     51 H16        -8.7096   -5.6897   -4.5068 H         1 <0>         0.1078
     52 H17        -8.1181   -4.5671   -5.7790 H         1 <0>         0.1047
     53 H18        -8.7493   -7.5644   -6.0174 H         1 <0>         0.1083
     54 H19        -7.0601   -6.2030   -8.1059 H         1 <0>         0.1191
     55 H20        -6.7885   -8.8734   -6.6485 H         1 <0>         0.0556
     56 H21        -7.7319   -8.6366   -8.1392 H         1 <0>         0.0677
     57 H22        -5.4966   -9.3395   -8.6028 H         1 <0>         0.3864
     58 H23        -3.8950   -1.5065   -6.1757 H         1 <0>         0.0740
     59 H24        -5.6588   -1.3029   -6.3016 H         1 <0>         0.0720
     60 H25        -4.7693   -0.5469   -4.9579 H         1 <0>         0.0791
@<TRIPOS>BOND
     1    1    2 1
     2    1   37 1
     3    1   38 1
     4    1   39 1
     5    2    9 1
     6    2    3 2
     7    3    4 1
     8    3   40 1
     9    4    5 am
    10    4   11 1
    11    5    6 2
    12    5    7 am
    13    7    8 1
    14    7    9 am
    15    9   10 2
    16   11   15 1
    17   11   12 1
    18   11   41 1
    19   12   13 1
    20   12   42 1
    21   12   43 1
    22   13   14 1
    23   13   18 1
    24   13   44 1
    25   14   15 1
    26   14   16 1
    27   14   45 1
    28   16   17 1
    29   16   46 1
    30   16   47 1
    31   17   48 1
    32   18   24 am
    33   18   19 am
    34   19   20 2
    35   19   21 1
    36   21   22 2
    37   21   36 1
    38   22   23 1
    39   22   49 1
    40   23   24 am
    41   23   26 1
    42   24   25 2
    43   26   30 1
    44   26   27 1
    45   26   50 1
    46   27   28 1
    47   27   51 1
    48   27   52 1
    49   28   29 1
    50   28   33 1
    51   28   53 1
    52   29   30 1
    53   29   31 1
    54   29   54 1
    55   31   32 1
    56   31   55 1
    57   31   56 1
    58   32   57 1
    59   33   34 2
    60   34   35 2
    61   36   58 1
    62   36   59 1
    63   36   60 1
@<TRIPOS>MOLECULE
CHEMBL136976
   37    38     0     0     0
SMALL
USER_CHARGES

@<TRIPOS>ATOM
      1 C1         -0.0187    1.5258    0.0104 C.3       1 <0>        -0.1164
      2 C2          0.0021   -0.0041    0.0020 C.3       1 <0>        -0.0963
      3 C3          0.7349   -0.5017   -1.2517 C.3       1 <0>         0.3241
      4 H1          0.1114   -0.3438   -2.1317 H         1 <0>         0.1010
      5 N1          0.9930   -1.9407   -1.0736 N.pl3     1 <0>        -0.6638
      6 C4          1.5789   -2.3449    0.0894 C.2       1 <0>         0.6676
      7 O1          2.2980   -3.4819    0.1177 O.3       1 <0>        -0.6702
      8 N2          1.4432   -1.6253    1.1879 N.2       1 <0>        -0.6815
      9 C5          0.7306   -0.5061    1.2223 C.2       1 <0>         0.5292
     10 O2          0.6640    0.1260    2.2580 O.2       1 <0>        -0.5485
     11 C6          0.6311   -2.9075   -2.1131 C.3       1 <0>         0.3340
     12 C7          1.8946   -3.6467   -2.6035 C.3       1 <0>        -0.1582
     13 C8          1.6403   -3.7560   -4.1317 C.3       1 <0>         0.0625
     14 C9          0.8848   -2.4300   -4.3997 C.3       1 <0>         0.1082
     15 O3          0.0661   -2.2233   -3.2376 O.3       1 <0>        -0.3548
     16 C10         0.0108   -2.5599   -5.6487 C.3       1 <0>         0.0869
     17 O4         -0.5861   -1.2960   -5.9460 O.3       1 <0>        -0.5675
     18 N3          0.8007   -4.9148   -4.4457 N.2       1 <0>        -0.3926
     19 N4          1.1910   -5.9547   -4.2735 N.1       1 <0>         0.3026
     20 N5          1.5729   -6.9724   -4.1049 N.1       1 <0>        -0.1714
     21 O5          1.9711    0.1992   -1.4012 O.3       1 <0>        -0.3825
     22 C11         2.5642    0.0624   -2.6941 C.3       1 <0>         0.0354
     23 I1         -2.0249   -0.7562    0.0078 I         1 <0>        -0.1061
     24 H2          1.0039    1.9031    0.0027 H         1 <0>         0.0762
     25 H3         -0.5459    1.8868   -0.8726 H         1 <0>         0.0562
     26 H4         -0.5289    1.8773    0.9072 H         1 <0>         0.0733
     27 H5         -0.0880   -3.6244   -1.7170 H         1 <0>         0.0915
     28 H6          2.7906   -3.0602   -2.4003 H         1 <0>         0.1051
     29 H7          1.9659   -4.6355   -2.1504 H         1 <0>         0.0923
     30 H8          2.5790   -3.7920   -4.6846 H         1 <0>         0.1027
     31 H9          1.5918   -1.6085   -4.5154 H         1 <0>         0.0926
     32 H10         0.6253   -2.8785   -6.4907 H         1 <0>         0.0563
     33 H11        -0.7712   -3.2979   -5.4699 H         1 <0>         0.0698
     34 H12        -1.1551   -1.3039   -6.7278 H         1 <0>         0.3787
     35 H13         3.4983    0.6232   -2.7266 H         1 <0>         0.0833
     36 H14         2.7654   -0.9904   -2.8919 H         1 <0>         0.0378
     37 H15         1.8812    0.4500   -3.4500 H         1 <0>         0.0426
@<TRIPOS>BOND
     1    1    2 1
     2    1   24 1
     3    1   25 1
     4    1   26 1
     5    2    9 1
     6    2    3 1
     7    2   23 1
     8    3    4 1
     9    3    5 1
    10    3   21 1
    11    5    6 1
    12    5   11 1
    13    6    7 1
    14    6    8 2
    15    8    9 1
    16    9   10 2
    17   11   15 1
    18   11   12 1
    19   11   27 1
    20   12   13 1
    21   12   28 1
    22   12   29 1
    23   13   14 1
    24   13   18 1
    25   13   30 1
    26   14   15 1
    27   14   16 1
    28   14   31 1
    29   16   17 1
    30   16   32 1
    31   16   33 1
    32   17   34 1
    33   18   19 2
    34   19   20 2
    35   21   22 1
    36   22   35 1
    37   22   36 1
    38   22   37 1
@<TRIPOS>MOLECULE
CHEMBL136976__1
   37    38     0     0     0
SMALL
USER_CHARGES

@<TRIPOS>ATOM
      1 C1         -0.0187    1.5258    0.0104 C.3       1 <0>        -0.1163
      2 C2          0.0021   -0.0041    0.0020 C.3       1 <0>        -0.0981
      3 C3          0.7349   -0.5017   -1.2517 C.3       1 <0>         0.3278
      4 H1          0.1114   -0.3438   -2.1317 H         1 <0>         0.0996
      5 N1          0.9930   -1.9407   -1.0736 N.pl3     1 <0>        -0.6535
      6 C4          1.5789   -2.3449    0.0894 C.2       1 <0>         0.6688
      7 O1          2.2980   -3.4819    0.1177 O.3       1 <0>        -0.6670
      8 N2          1.4432   -1.6253    1.1879 N.2       1 <0>        -0.6791
      9 C5          0.7306   -0.5061    1.2223 C.2       1 <0>         0.5291
     10 O2          0.6640    0.1260    2.2580 O.2       1 <0>        -0.5471
     11 C6          0.6311   -2.9075   -2.1131 C.3       1 <0>         0.3373
     12 C7          1.8984   -3.5878   -2.6907 C.3       1 <0>        -0.1692
     13 C8          1.4201   -4.0237   -4.0971 C.3       1 <0>         0.0694
     14 C9          0.2038   -3.1204   -4.3791 C.3       1 <0>         0.1081
     15 O3          0.0593   -2.2353   -3.2558 O.3       1 <0>        -0.3620
     16 C10         0.4432   -2.3086   -5.6537 C.3       1 <0>         0.0824
     17 O4         -0.7335   -1.5624   -5.9712 O.3       1 <0>        -0.5588
     18 N3          1.0210   -5.4333   -4.0889 N.2       1 <0>        -0.3960
     19 N4          1.7907   -6.2343   -3.9180 N.1       1 <0>         0.3037
     20 N5          2.5440   -7.0182   -3.7508 N.1       1 <0>        -0.1692
     21 O5          1.9711    0.1992   -1.4012 O.3       1 <0>        -0.3828
     22 C11         2.5642    0.0624   -2.6941 C.3       1 <0>         0.0381
     23 I1         -2.0249   -0.7562    0.0078 I         1 <0>        -0.1044
     24 H2          1.0039    1.9031    0.0027 H         1 <0>         0.0764
     25 H3         -0.5459    1.8868   -0.8726 H         1 <0>         0.0563
     26 H4         -0.5289    1.8773    0.9072 H         1 <0>         0.0739
     27 H5         -0.0613   -3.6515   -1.7194 H         1 <0>         0.0850
     28 H6          2.7224   -2.8780   -2.7627 H         1 <0>         0.0945
     29 H7          2.1830   -4.4526   -2.0913 H         1 <0>         0.1004
     30 H8          2.2024   -3.8519   -4.8363 H         1 <0>         0.0943
     31 H9         -0.6931   -3.7300   -4.4885 H         1 <0>         0.1012
     32 H10         1.2765   -1.6237   -5.4971 H         1 <0>         0.0541
     33 H11         0.6778   -2.9843   -6.4762 H         1 <0>         0.0610
     34 H12        -0.6536   -1.0230   -6.7698 H         1 <0>         0.3793
     35 H13         3.4983    0.6232   -2.7266 H         1 <0>         0.0815
     36 H14         2.7654   -0.9904   -2.8919 H         1 <0>         0.0407
     37 H15         1.8812    0.4500   -3.4500 H         1 <0>         0.0404
@<TRIPOS>BOND
     1    1    2 1
     2    1   24 1
     3    1   25 1
     4    1   26 1
     5    2    9 1
     6    2    3 1
     7    2   23 1
     8    3    4 1
     9    3    5 1
    10    3   21 1
    11    5    6 1
    12    5   11 1
    13    6    7 1
    14    6    8 2
    15    8    9 1
    16    9   10 2
    17   11   15 1
    18   11   12 1
    19   11   27 1
    20   12   13 1
    21   12   28 1
    22   12   29 1
    23   13   14 1
    24   13   18 1
    25   13   30 1
    26   14   15 1
    27   14   16 1
    28   14   31 1
    29   16   17 1
    30   16   32 1
    31   16   33 1
    32   17   34 1
    33   18   19 2
    34   19   20 2
    35   21   22 1
    36   22   35 1
    37   22   36 1
    38   22   37 1
@<TRIPOS>MOLECULE
CHEMBL136976__2
   37    38     0     0     0
SMALL
USER_CHARGES

@<TRIPOS>ATOM
      1 C1         -0.0187    1.5258    0.0104 C.3       1 <0>        -0.1167
      2 C2          0.0021   -0.0041    0.0020 C.3       1 <0>        -0.0955
      3 C3          0.7349   -0.5017   -1.2517 C.3       1 <0>         0.3245
      4 H1          0.1114   -0.3438   -2.1317 H         1 <0>         0.1004
      5 N1          0.9930   -1.9407   -1.0736 N.pl3     1 <0>        -0.6631
      6 C4          1.5789   -2.3449    0.0894 C.2       1 <0>         0.6677
      7 O1          2.2980   -3.4819    0.1177 O.3       1 <0>        -0.6695
      8 N2          1.4432   -1.6253    1.1879 N.2       1 <0>        -0.6810
      9 C5          0.7306   -0.5061    1.2223 C.2       1 <0>         0.5292
     10 O2          0.6640    0.1260    2.2580 O.2       1 <0>        -0.5482
     11 C6          0.6311   -2.9075   -2.1131 C.3       1 <0>         0.3323
     12 C7          1.8946   -3.6467   -2.6035 C.3       1 <0>        -0.1623
     13 C8          1.6403   -3.7560   -4.1317 C.3       1 <0>         0.0650
     14 C9          0.8848   -2.4300   -4.3997 C.3       1 <0>         0.1051
     15 O3          0.0661   -2.2233   -3.2376 O.3       1 <0>        -0.3576
     16 C10         0.0108   -2.5599   -5.6487 C.3       1 <0>         0.0835
     17 O4         -0.5861   -1.2960   -5.9460 O.3       1 <0>        -0.5618
     18 N3          2.9019   -3.8043   -4.8748 N.2       1 <0>        -0.3929
     19 N4          3.5866   -4.6886   -4.7627 N.1       1 <0>         0.3038
     20 N5          4.2567   -5.5540   -4.6530 N.1       1 <0>        -0.1677
     21 O5          1.9711    0.1992   -1.4012 O.3       1 <0>        -0.3829
     22 C11         2.5642    0.0624   -2.6941 C.3       1 <0>         0.0356
     23 I1         -2.0249   -0.7562    0.0078 I         1 <0>        -0.1073
     24 H2          1.0039    1.9031    0.0027 H         1 <0>         0.0765
     25 H3         -0.5459    1.8868   -0.8726 H         1 <0>         0.0563
     26 H4         -0.5289    1.8773    0.9072 H         1 <0>         0.0734
     27 H5         -0.0880   -3.6244   -1.7170 H         1 <0>         0.0968
     28 H6          2.7906   -3.0602   -2.4003 H         1 <0>         0.0987
     29 H7          1.9659   -4.6355   -2.1504 H         1 <0>         0.0991
     30 H8          1.0156   -4.6182   -4.3653 H         1 <0>         0.0994
     31 H9          1.5918   -1.6085   -4.5154 H         1 <0>         0.0943
     32 H10         0.6253   -2.8785   -6.4907 H         1 <0>         0.0642
     33 H11        -0.7712   -3.2979   -5.4699 H         1 <0>         0.0552
     34 H12        -1.1551   -1.3039   -6.7278 H         1 <0>         0.3794
     35 H13         3.4983    0.6232   -2.7266 H         1 <0>         0.0829
     36 H14         2.7654   -0.9904   -2.8919 H         1 <0>         0.0405
     37 H15         1.8812    0.4500   -3.4500 H         1 <0>         0.0424
@<TRIPOS>BOND
     1    1    2 1
     2    1   24 1
     3    1   25 1
     4    1   26 1
     5    2    9 1
     6    2    3 1
     7    2   23 1
     8    3    4 1
     9    3    5 1
    10    3   21 1
    11    5    6 1
    12    5   11 1
    13    6    7 1
    14    6    8 2
    15    8    9 1
    16    9   10 2
    17   11   15 1
    18   11   12 1
    19   11   27 1
    20   12   13 1
    21   12   28 1
    22   12   29 1
    23   13   14 1
    24   13   18 1
    25   13   30 1
    26   14   15 1
    27   14   16 1
    28   14   31 1
    29   16   17 1
    30   16   32 1
    31   16   33 1
    32   17   34 1
    33   18   19 2
    34   19   20 2
    35   21   22 1
    36   22   35 1
    37   22   36 1
    38   22   37 1
@<TRIPOS>MOLECULE
CHEMBL136976__3
   37    38     0     0     0
SMALL
USER_CHARGES

@<TRIPOS>ATOM
      1 C1         -0.0187    1.5258    0.0104 C.3       1 <0>        -0.1166
      2 C2          0.0021   -0.0041    0.0020 C.3       1 <0>        -0.0973
      3 C3          0.7349   -0.5017   -1.2517 C.3       1 <0>         0.3281
      4 H1          0.1114   -0.3438   -2.1317 H         1 <0>         0.0997
      5 N1          0.9930   -1.9407   -1.0736 N.pl3     1 <0>        -0.6524
      6 C4          1.5789   -2.3449    0.0894 C.2       1 <0>         0.6688
      7 O1          2.2980   -3.4819    0.1177 O.3       1 <0>        -0.6675
      8 N2          1.4432   -1.6253    1.1879 N.2       1 <0>        -0.6792
      9 C5          0.7306   -0.5061    1.2223 C.2       1 <0>         0.5291
     10 O2          0.6640    0.1260    2.2580 O.2       1 <0>        -0.5469
     11 C6          0.6311   -2.9075   -2.1131 C.3       1 <0>         0.3353
     12 C7          1.8984   -3.5878   -2.6907 C.3       1 <0>        -0.1722
     13 C8          1.4201   -4.0237   -4.0971 C.3       1 <0>         0.0686
     14 C9          0.2038   -3.1204   -4.3791 C.3       1 <0>         0.1104
     15 O3          0.0593   -2.2353   -3.2558 O.3       1 <0>        -0.3614
     16 C10         0.4432   -2.3086   -5.6537 C.3       1 <0>         0.0935
     17 O4         -0.7335   -1.5624   -5.9712 O.3       1 <0>        -0.5693
     18 N3          2.4716   -3.7929   -5.0907 N.2       1 <0>        -0.3998
     19 N4          3.4258   -4.3853   -5.0471 N.1       1 <0>         0.3029
     20 N5          4.3596   -4.9652   -5.0045 N.1       1 <0>        -0.1700
     21 O5          1.9711    0.1992   -1.4012 O.3       1 <0>        -0.3832
     22 C11         2.5642    0.0624   -2.6941 C.3       1 <0>         0.0394
     23 I1         -2.0249   -0.7562    0.0078 I         1 <0>        -0.1054
     24 H2          1.0039    1.9031    0.0027 H         1 <0>         0.0765
     25 H3         -0.5459    1.8868   -0.8726 H         1 <0>         0.0565
     26 H4         -0.5289    1.8773    0.9072 H         1 <0>         0.0739
     27 H5         -0.0613   -3.6515   -1.7194 H         1 <0>         0.0857
     28 H6          2.7224   -2.8780   -2.7627 H         1 <0>         0.0884
     29 H7          2.1830   -4.4526   -2.0913 H         1 <0>         0.1073
     30 H8          1.1231   -5.0724   -4.0910 H         1 <0>         0.0995
     31 H9         -0.6931   -3.7300   -4.4885 H         1 <0>         0.0937
     32 H10         1.2765   -1.6237   -5.4971 H         1 <0>         0.0583
     33 H11         0.6778   -2.9843   -6.4762 H         1 <0>         0.0651
     34 H12        -0.6536   -1.0230   -6.7698 H         1 <0>         0.3774
     35 H13         3.4983    0.6232   -2.7266 H         1 <0>         0.0807
     36 H14         2.7654   -0.9904   -2.8919 H         1 <0>         0.0410
     37 H15         1.8812    0.4500   -3.4500 H         1 <0>         0.0410
@<TRIPOS>BOND
     1    1    2 1
     2    1   24 1
     3    1   25 1
     4    1   26 1
     5    2    9 1
     6    2    3 1
     7    2   23 1
     8    3    4 1
     9    3    5 1
    10    3   21 1
    11    5    6 1
    12    5   11 1
    13    6    7 1
    14    6    8 2
    15    8    9 1
    16    9   10 2
    17   11   15 1
    18   11   12 1
    19   11   27 1
    20   12   13 1
    21   12   28 1
    22   12   29 1
    23   13   14 1
    24   13   18 1
    25   13   30 1
    26   14   15 1
    27   14   16 1
    28   14   31 1
    29   16   17 1
    30   16   32 1
    31   16   33 1
    32   17   34 1
    33   18   19 2
    34   19   20 2
    35   21   22 1
    36   22   35 1
    37   22   36 1
    38   22   37 1
@<TRIPOS>MOLECULE
CHEMBL136976__4
   37    38     0     0     0
SMALL
USER_CHARGES

@<TRIPOS>ATOM
      1 C1         -0.0187    1.5258    0.0104 C.3       1 <0>        -0.1162
      2 C2          0.0021   -0.0041    0.0020 C.3       1 <0>        -0.1014
      3 C3          0.7349   -0.5017   -1.2517 C.3       1 <0>         0.3290
      4 H1          0.1114   -0.3438   -2.1317 H         1 <0>         0.0803
      5 N1          0.9930   -1.9407   -1.0736 N.pl3     1 <0>        -0.6482
      6 C4          1.5789   -2.3449    0.0894 C.2       1 <0>         0.6736
      7 O1          2.2980   -3.4819    0.1177 O.3       1 <0>        -0.6507
      8 N2          1.4432   -1.6253    1.1879 N.2       1 <0>        -0.6836
      9 C5          0.7306   -0.5061    1.2223 C.2       1 <0>         0.5298
     10 O2          0.6640    0.1260    2.2580 O.2       1 <0>        -0.5514
     11 C6          0.6311   -2.9075   -2.1131 C.3       1 <0>         0.3286
     12 C7          1.8918   -3.6296   -2.6383 C.3       1 <0>        -0.1966
     13 C8          1.4180   -5.0791   -2.8869 C.3       1 <0>         0.0829
     14 C9         -0.0728   -5.0612   -2.4825 C.3       1 <0>         0.1074
     15 O3         -0.1915   -3.9572   -1.5590 O.3       1 <0>        -0.3376
     16 C10        -0.4540   -6.3740   -1.7952 C.3       1 <0>         0.0936
     17 O4         -1.8590   -6.3846   -1.5345 O.3       1 <0>        -0.5703
     18 N3          2.1670   -6.0154   -2.0452 N.2       1 <0>        -0.3733
     19 N4          3.2675   -6.1676   -2.2156 N.1       1 <0>         0.3074
     20 N5          4.3446   -6.3165   -2.3824 N.1       1 <0>        -0.1959
     21 O5          1.9711    0.1992   -1.4012 O.3       1 <0>        -0.3773
     22 C11         2.5642    0.0624   -2.6941 C.3       1 <0>         0.0325
     23 I1         -2.0249   -0.7562    0.0078 I         1 <0>        -0.0989
     24 H2          1.0039    1.9031    0.0027 H         1 <0>         0.0765
     25 H3         -0.5459    1.8868   -0.8726 H         1 <0>         0.0546
     26 H4         -0.5289    1.8773    0.9072 H         1 <0>         0.0745
     27 H5          0.1099   -2.4081   -2.9299 H         1 <0>         0.0767
     28 H6          2.2331   -3.1745   -3.5681 H         1 <0>         0.0753
     29 H7          2.6833   -3.6096   -1.8891 H         1 <0>         0.1278
     30 H8          1.5251   -5.3406   -3.9396 H         1 <0>         0.0894
     31 H9         -0.7012   -4.8935   -3.3572 H         1 <0>         0.0874
     32 H10        -0.1986   -7.2115   -2.4444 H         1 <0>         0.0548
     33 H11         0.0906   -6.4635   -0.8553 H         1 <0>         0.0731
     34 H12        -2.1721   -7.1892   -1.0988 H         1 <0>         0.3769
     35 H13         3.4983    0.6232   -2.7266 H         1 <0>         0.0866
     36 H14         2.7654   -0.9904   -2.8919 H         1 <0>         0.0431
     37 H15         1.8812    0.4500   -3.4500 H         1 <0>         0.0393
@<TRIPOS>BOND
     1    1    2 1
     2    1   24 1
     3    1   25 1
     4    1   26 1
     5    2    9 1
     6    2    3 1
     7    2   23 1
     8    3    4 1
     9    3    5 1
    10    3   21 1
    11    5    6 1
    12    5   11 1
    13    6    7 1
    14    6    8 2
    15    8    9 1
    16    9   10 2
    17   11   15 1
    18   11   12 1
    19   11   27 1
    20   12   13 1
    21   12   28 1
    22   12   29 1
    23   13   14 1
    24   13   18 1
    25   13   30 1
    26   14   15 1
    27   14   16 1
    28   14   31 1
    29   16   17 1
    30   16   32 1
    31   16   33 1
    32   17   34 1
    33   18   19 2
    34   19   20 2
    35   21   22 1
    36   22   35 1
    37   22   36 1
    38   22   37 1
@<TRIPOS>MOLECULE
CHEMBL136976__5
   37    38     0     0     0
SMALL
USER_CHARGES

@<TRIPOS>ATOM
      1 C1         -0.0187    1.5258    0.0104 C.3       1 <0>        -0.1163
      2 C2          0.0021   -0.0041    0.0020 C.3       1 <0>        -0.1015
      3 C3          0.7349   -0.5017   -1.2517 C.3       1 <0>         0.3288
      4 H1          0.1114   -0.3438   -2.1317 H         1 <0>         0.0803
      5 N1          0.9930   -1.9407   -1.0736 N.pl3     1 <0>        -0.6502
      6 C4          1.5789   -2.3449    0.0894 C.2       1 <0>         0.6747
      7 O1          2.2980   -3.4819    0.1177 O.3       1 <0>        -0.6559
      8 N2          1.4432   -1.6253    1.1879 N.2       1 <0>        -0.6826
      9 C5          0.7306   -0.5061    1.2223 C.2       1 <0>         0.5302
     10 O2          0.6640    0.1260    2.2580 O.2       1 <0>        -0.5497
     11 C6          0.6311   -2.9075   -2.1131 C.3       1 <0>         0.3324
     12 C7          1.8975   -3.6249   -2.6446 C.3       1 <0>        -0.1989
     13 C8          1.2849   -4.9497   -3.1753 C.3       1 <0>         0.0797
     14 C9          0.1368   -5.2037   -2.1749 C.3       1 <0>         0.1144
     15 O3         -0.1870   -3.9509   -1.5606 O.3       1 <0>        -0.3446
     16 C10        -1.0855   -5.7500   -2.9153 C.3       1 <0>         0.0722
     17 O4         -2.1016   -6.0915   -1.9703 O.3       1 <0>        -0.5551
     18 N3          2.2680   -6.0348   -3.1271 N.2       1 <0>        -0.3802
     19 N4          3.1771   -5.9992   -3.7872 N.1       1 <0>         0.3043
     20 N5          4.0668   -5.9644   -4.4331 N.1       1 <0>        -0.1868
     21 O5          1.9711    0.1992   -1.4012 O.3       1 <0>        -0.3768
     22 C11         2.5642    0.0624   -2.6941 C.3       1 <0>         0.0321
     23 I1         -2.0249   -0.7562    0.0078 I         1 <0>        -0.0989
     24 H2          1.0039    1.9031    0.0027 H         1 <0>         0.0768
     25 H3         -0.5459    1.8868   -0.8726 H         1 <0>         0.0547
     26 H4         -0.5289    1.8773    0.9072 H         1 <0>         0.0748
     27 H5          0.1075   -2.4076   -2.9280 H         1 <0>         0.0791
     28 H6          2.3620   -3.0564   -3.4503 H         1 <0>         0.0750
     29 H7          2.6080   -3.8151   -1.8402 H         1 <0>         0.1420
     30 H8          0.8974   -4.8205   -4.1859 H         1 <0>         0.0904
     31 H9          0.4592   -5.9157   -1.4151 H         1 <0>         0.1079
     32 H10        -1.4655   -4.9908   -3.5990 H         1 <0>         0.0475
     33 H11        -0.8013   -6.6379   -3.4801 H         1 <0>         0.0563
     34 H12        -2.9077   -6.4454   -2.3702 H         1 <0>         0.3746
     35 H13         3.4983    0.6232   -2.7266 H         1 <0>         0.0872
     36 H14         2.7654   -0.9904   -2.8919 H         1 <0>         0.0429
     37 H15         1.8812    0.4500   -3.4500 H         1 <0>         0.0391
@<TRIPOS>BOND
     1    1    2 1
     2    1   24 1
     3    1   25 1
     4    1   26 1
     5    2    9 1
     6    2    3 1
     7    2   23 1
     8    3    4 1
     9    3    5 1
    10    3   21 1
    11    5    6 1
    12    5   11 1
    13    6    7 1
    14    6    8 2
    15    8    9 1
    16    9   10 2
    17   11   15 1
    18   11   12 1
    19   11   27 1
    20   12   13 1
    21   12   28 1
    22   12   29 1
    23   13   14 1
    24   13   18 1
    25   13   30 1
    26   14   15 1
    27   14   16 1
    28   14   31 1
    29   16   17 1
    30   16   32 1
    31   16   33 1
    32   17   34 1
    33   18   19 2
    34   19   20 2
    35   21   22 1
    36   22   35 1
    37   22   36 1
    38   22   37 1
@<TRIPOS>MOLECULE
CHEMBL136976__6
   37    38     0     0     0
SMALL
USER_CHARGES

@<TRIPOS>ATOM
      1 C1         -0.0187    1.5258    0.0104 C.3       1 <0>        -0.1165
      2 C2          0.0021   -0.0041    0.0020 C.3       1 <0>        -0.1019
      3 C3          0.7349   -0.5017   -1.2517 C.3       1 <0>         0.3285
      4 H1          0.1114   -0.3438   -2.1317 H         1 <0>         0.0813
      5 N1          0.9930   -1.9407   -1.0736 N.pl3     1 <0>        -0.6486
      6 C4          1.5789   -2.3449    0.0894 C.2       1 <0>         0.6760
      7 O1          2.2980   -3.4819    0.1177 O.3       1 <0>        -0.6611
      8 N2          1.4432   -1.6253    1.1879 N.2       1 <0>        -0.6831
      9 C5          0.7306   -0.5061    1.2223 C.2       1 <0>         0.5306
     10 O2          0.6640    0.1260    2.2580 O.2       1 <0>        -0.5488
     11 C6          0.6311   -2.9075   -2.1131 C.3       1 <0>         0.3300
     12 C7          1.8918   -3.6296   -2.6383 C.3       1 <0>        -0.1869
     13 C8          1.4180   -5.0791   -2.8869 C.3       1 <0>         0.0814
     14 C9         -0.0728   -5.0612   -2.4825 C.3       1 <0>         0.1088
     15 O3         -0.1915   -3.9572   -1.5590 O.3       1 <0>        -0.3400
     16 C10        -0.4540   -6.3740   -1.7952 C.3       1 <0>         0.0857
     17 O4         -1.8590   -6.3846   -1.5345 O.3       1 <0>        -0.5621
     18 N3          1.5620   -5.4306   -4.3018 N.2       1 <0>        -0.3970
     19 N4          2.5852   -5.5081   -4.7603 N.1       1 <0>         0.3039
     20 N5          3.5867   -5.5839   -5.2090 N.1       1 <0>        -0.1830
     21 O5          1.9711    0.1992   -1.4012 O.3       1 <0>        -0.3767
     22 C11         2.5642    0.0624   -2.6941 C.3       1 <0>         0.0321
     23 I1         -2.0249   -0.7562    0.0078 I         1 <0>        -0.0977
     24 H2          1.0039    1.9031    0.0027 H         1 <0>         0.0770
     25 H3         -0.5459    1.8868   -0.8726 H         1 <0>         0.0552
     26 H4         -0.5289    1.8773    0.9072 H         1 <0>         0.0749
     27 H5          0.1099   -2.4081   -2.9299 H         1 <0>         0.0787
     28 H6          2.2331   -3.1745   -3.5681 H         1 <0>         0.0675
     29 H7          2.6833   -3.6096   -1.8891 H         1 <0>         0.1318
     30 H8          1.9753   -5.7757   -2.2606 H         1 <0>         0.0993
     31 H9         -0.7012   -4.8935   -3.3572 H         1 <0>         0.0913
     32 H10        -0.1986   -7.2115   -2.4444 H         1 <0>         0.0593
     33 H11         0.0906   -6.4635   -0.8553 H         1 <0>         0.0614
     34 H12        -2.1721   -7.1892   -1.0988 H         1 <0>         0.3782
     35 H13         3.4983    0.6232   -2.7266 H         1 <0>         0.0875
     36 H14         2.7654   -0.9904   -2.8919 H         1 <0>         0.0429
     37 H15         1.8812    0.4500   -3.4500 H         1 <0>         0.0397
@<TRIPOS>BOND
     1    1    2 1
     2    1   24 1
     3    1   25 1
     4    1   26 1
     5    2    9 1
     6    2    3 1
     7    2   23 1
     8    3    4 1
     9    3    5 1
    10    3   21 1
    11    5    6 1
    12    5   11 1
    13    6    7 1
    14    6    8 2
    15    8    9 1
    16    9   10 2
    17   11   15 1
    18   11   12 1
    19   11   27 1
    20   12   13 1
    21   12   28 1
    22   12   29 1
    23   13   14 1
    24   13   18 1
    25   13   30 1
    26   14   15 1
    27   14   16 1
    28   14   31 1
    29   16   17 1
    30   16   32 1
    31   16   33 1
    32   17   34 1
    33   18   19 2
    34   19   20 2
    35   21   22 1
    36   22   35 1
    37   22   36 1
    38   22   37 1
@<TRIPOS>MOLECULE
CHEMBL136976__7
   37    38     0     0     0
SMALL
USER_CHARGES

@<TRIPOS>ATOM
      1 C1         -0.0187    1.5258    0.0104 C.3       1 <0>        -0.1164
      2 C2          0.0021   -0.0041    0.0020 C.3       1 <0>        -0.1018
      3 C3          0.7349   -0.5017   -1.2517 C.3       1 <0>         0.3287
      4 H1          0.1114   -0.3438   -2.1317 H         1 <0>         0.0797
      5 N1          0.9930   -1.9407   -1.0736 N.pl3     1 <0>        -0.6509
      6 C4          1.5789   -2.3449    0.0894 C.2       1 <0>         0.6764
      7 O1          2.2980   -3.4819    0.1177 O.3       1 <0>        -0.6615
      8 N2          1.4432   -1.6253    1.1879 N.2       1 <0>        -0.6831
      9 C5          0.7306   -0.5061    1.2223 C.2       1 <0>         0.5309
     10 O2          0.6640    0.1260    2.2580 O.2       1 <0>        -0.5492
     11 C6          0.6311   -2.9075   -2.1131 C.3       1 <0>         0.3350
     12 C7          1.8975   -3.6249   -2.6446 C.3       1 <0>        -0.1907
     13 C8          1.2849   -4.9497   -3.1753 C.3       1 <0>         0.0742
     14 C9          0.1368   -5.2037   -2.1749 C.3       1 <0>         0.1202
     15 O3         -0.1870   -3.9509   -1.5606 O.3       1 <0>        -0.3460
     16 C10        -1.0855   -5.7500   -2.9153 C.3       1 <0>         0.0799
     17 O4         -2.1016   -6.0915   -1.9703 O.3       1 <0>        -0.5635
     18 N3          0.7640   -4.7760   -4.5335 N.2       1 <0>        -0.3975
     19 N4          1.4695   -4.5700   -5.3839 N.1       1 <0>         0.3033
     20 N5          2.1600   -4.3685   -6.2162 N.1       1 <0>        -0.1841
     21 O5          1.9711    0.1992   -1.4012 O.3       1 <0>        -0.3767
     22 C11         2.5642    0.0624   -2.6941 C.3       1 <0>         0.0326
     23 I1         -2.0249   -0.7562    0.0078 I         1 <0>        -0.0977
     24 H2          1.0039    1.9031    0.0027 H         1 <0>         0.0768
     25 H3         -0.5459    1.8868   -0.8726 H         1 <0>         0.0547
     26 H4         -0.5289    1.8773    0.9072 H         1 <0>         0.0749
     27 H5          0.1075   -2.4076   -2.9280 H         1 <0>         0.0761
     28 H6          2.3620   -3.0564   -3.4503 H         1 <0>         0.0678
     29 H7          2.6080   -3.8151   -1.8402 H         1 <0>         0.1467
     30 H8          2.0164   -5.7570   -3.1395 H         1 <0>         0.1039
     31 H9          0.4592   -5.9157   -1.4151 H         1 <0>         0.1036
     32 H10        -1.4655   -4.9908   -3.5990 H         1 <0>         0.0595
     33 H11        -0.8013   -6.6379   -3.4801 H         1 <0>         0.0524
     34 H12        -2.9077   -6.4454   -2.3702 H         1 <0>         0.3734
     35 H13         3.4983    0.6232   -2.7266 H         1 <0>         0.0877
     36 H14         2.7654   -0.9904   -2.8919 H         1 <0>         0.0419
     37 H15         1.8812    0.4500   -3.4500 H         1 <0>         0.0388
@<TRIPOS>BOND
     1    1    2 1
     2    1   24 1
     3    1   25 1
     4    1   26 1
     5    2    9 1
     6    2    3 1
     7    2   23 1
     8    3    4 1
     9    3    5 1
    10    3   21 1
    11    5    6 1
    12    5   11 1
    13    6    7 1
    14    6    8 2
    15    8    9 1
    16    9   10 2
    17   11   15 1
    18   11   12 1
    19   11   27 1
    20   12   13 1
    21   12   28 1
    22   12   29 1
    23   13   14 1
    24   13   18 1
    25   13   30 1
    26   14   15 1
    27   14   16 1
    28   14   31 1
    29   16   17 1
    30   16   32 1
    31   16   33 1
    32   17   34 1
    33   18   19 2
    34   19   20 2
    35   21   22 1
    36   22   35 1
    37   22   36 1
    38   22   37 1
@<TRIPOS>MOLECULE
CHEMBL151791
   44    46     0     0     0
SMALL
USER_CHARGES

@<TRIPOS>ATOM
      1 C1         -0.0173    1.4248    0.0099 C.3       1 <0>         0.0258
      2 O1          0.0021   -0.0041    0.0020 O.3       1 <0>        -0.3084
      3 C2         -1.2002   -0.6374    0.0101 C.ar      1 <0>         0.2010
      4 C3         -1.2551   -2.0217    0.0090 C.ar      1 <0>        -0.2149
      5 C4         -2.4827   -2.6750    0.0165 C.ar      1 <0>         0.2020
      6 C5         -3.6537   -1.9378    0.0226 C.ar      1 <0>        -0.2257
      7 C6         -3.5976   -0.5489    0.0264 C.ar      1 <0>         0.2056
      8 C7         -2.3738    0.1008    0.0253 C.ar      1 <0>        -0.3238
      9 O2         -4.7478    0.1747    0.0361 O.3       1 <0>        -0.3078
     10 C8         -4.6189    1.5979    0.0395 C.3       1 <0>         0.0254
     11 C9         -5.0042   -2.6083    0.0194 C.3       1 <0>        -0.0559
     12 C10        -4.8559   -4.0689    0.4523 C.3       1 <0>         0.0538
     13 C11        -3.7046   -4.6936   -0.3462 C.3       1 <0>         0.0485
     14 O3         -2.4923   -4.0335    0.0205 O.3       1 <0>        -0.2934
     15 O4         -6.0680   -4.7764    0.1834 O.3       1 <0>        -0.3315
     16 C12        -6.3680   -5.8076    0.9973 C.2       1 <0>         0.5112
     17 O5         -5.6209   -6.0981    1.9104 O.2       1 <0>        -0.4896
     18 C13        -7.6032   -6.5835    0.7798 C.ar      1 <0>        -0.1035
     19 C14        -8.4606   -6.2541   -0.2735 C.ar      1 <0>        -0.0797
     20 C15        -9.6174   -6.9829   -0.4750 C.ar      1 <0>         0.0858
     21 C16        -9.9293   -8.0443    0.3707 C.ar      1 <0>         0.0955
     22 C17        -9.0771   -8.3745    1.4212 C.ar      1 <0>         0.0879
     23 C18        -7.9155   -7.6533    1.6233 C.ar      1 <0>        -0.0727
     24 O6         -9.3850   -9.4115    2.2456 O.3       1 <0>        -0.4778
     25 O7        -11.0676   -8.7590    0.1706 O.3       1 <0>        -0.4726
     26 O8        -10.4523   -6.6629   -1.4999 O.3       1 <0>        -0.4786
     27 H1          1.0053    1.8021    0.0021 H         1 <0>         0.1048
     28 H2         -0.5445    1.7859   -0.8732 H         1 <0>         0.0573
     29 H3         -0.5275    1.7763    0.9067 H         1 <0>         0.0574
     30 H4         -0.3405   -2.5960    0.0019 H         1 <0>         0.1436
     31 H5         -2.3342    1.1800    0.0319 H         1 <0>         0.1394
     32 H6         -5.6096    2.0524    0.0474 H         1 <0>         0.1047
     33 H7         -4.0686    1.9108    0.9268 H         1 <0>         0.0577
     34 H8         -4.0803    1.9161   -0.8531 H         1 <0>         0.0579
     35 H9         -5.6679   -2.0904    0.7119 H         1 <0>         0.0930
     36 H10        -5.4264   -2.5687   -0.9847 H         1 <0>         0.0901
     37 H11        -4.6316   -4.1154    1.5180 H         1 <0>         0.1032
     38 H12        -3.6296   -5.7556   -0.1126 H         1 <0>         0.1150
     39 H13        -3.8850   -4.5637   -1.4133 H         1 <0>         0.0814
     40 H14        -8.2195   -5.4305   -0.9293 H         1 <0>         0.1548
     41 H15        -7.2525   -7.9128    2.4354 H         1 <0>         0.1543
     42 H16        -9.0339  -10.2638    1.9534 H         1 <0>         0.3934
     43 H17       -10.9570   -9.5180   -0.4182 H         1 <0>         0.3922
     44 H18       -10.2535   -7.1223   -2.3272 H         1 <0>         0.3929
@<TRIPOS>BOND
     1    1    2 1
     2    1   27 1
     3    1   28 1
     4    1   29 1
     5    2    3 1
     6    3    8 ar
     7    3    4 ar
     8    4    5 ar
     9    4   30 1
    10    5   14 1
    11    5    6 ar
    12    6    7 ar
    13    6   11 1
    14    7    8 ar
    15    7    9 1
    16    8   31 1
    17    9   10 1
    18   10   32 1
    19   10   33 1
    20   10   34 1
    21   11   12 1
    22   11   35 1
    23   11   36 1
    24   12   13 1
    25   12   15 1
    26   12   37 1
    27   13   14 1
    28   13   38 1
    29   13   39 1
    30   15   16 1
    31   16   17 2
    32   16   18 1
    33   18   23 ar
    34   18   19 ar
    35   19   20 ar
    36   19   40 1
    37   20   21 ar
    38   20   26 1
    39   21   22 ar
    40   21   25 1
    41   22   23 ar
    42   22   24 1
    43   23   41 1
    44   24   42 1
    45   25   43 1
    46   26   44 1
@<TRIPOS>MOLECULE
CHEMBL151791__1
   44    46     0     0     0
SMALL
USER_CHARGES

@<TRIPOS>ATOM
      1 C1         -0.0173    1.4248    0.0099 C.3       1 <0>         0.0259
      2 O1          0.0021   -0.0041    0.0020 O.3       1 <0>        -0.3083
      3 C2         -1.2002   -0.6374    0.0101 C.ar      1 <0>         0.2011
      4 C3         -1.2551   -2.0217    0.0090 C.ar      1 <0>        -0.2148
      5 C4         -2.4827   -2.6750    0.0189 C.ar      1 <0>         0.2024
      6 C5         -3.6536   -1.9378    0.0324 C.ar      1 <0>        -0.2260
      7 C6         -3.5976   -0.5489    0.0309 C.ar      1 <0>         0.2054
      8 C7         -2.3738    0.1008    0.0253 C.ar      1 <0>        -0.3240
      9 O2         -4.7478    0.1747    0.0396 O.3       1 <0>        -0.3082
     10 C8         -4.6189    1.5979    0.0374 C.3       1 <0>         0.0254
     11 C9         -5.0039   -2.6083    0.0549 C.3       1 <0>        -0.0553
     12 C10        -4.8624   -4.0680   -0.3834 C.3       1 <0>         0.0541
     13 C11        -3.6989   -4.6944    0.3958 C.3       1 <0>         0.0474
     14 O3         -2.4924   -4.0335    0.0120 O.3       1 <0>        -0.2931
     15 O4         -6.0702   -4.7761   -0.0974 O.3       1 <0>        -0.3314
     16 C12        -6.3827   -5.8054   -0.9089 C.2       1 <0>         0.5112
     17 O5         -5.6497   -6.0939   -1.8341 O.2       1 <0>        -0.4897
     18 C13        -7.6144   -6.5819   -0.6742 C.ar      1 <0>        -0.1035
     19 C14        -8.4613   -6.2476    0.3861 C.ar      1 <0>        -0.0797
     20 C15        -9.6149   -6.9770    0.6038 C.ar      1 <0>         0.0858
     21 C16        -9.9334   -8.0444   -0.2319 C.ar      1 <0>         0.0955
     22 C17        -9.0912   -8.3799   -1.2888 C.ar      1 <0>         0.0879
     23 C18        -7.9397   -7.6498   -1.5151 C.ar      1 <0>        -0.0727
     24 O6         -9.4051   -9.4233   -2.1027 O.3       1 <0>        -0.4778
     25 O7        -11.0680   -8.7601   -0.0153 O.3       1 <0>        -0.4726
     26 O8        -10.4395   -6.6523    1.6354 O.3       1 <0>        -0.4786
     27 H1          1.0053    1.8021    0.0021 H         1 <0>         0.1048
     28 H2         -0.5445    1.7859   -0.8732 H         1 <0>         0.0573
     29 H3         -0.5275    1.7763    0.9067 H         1 <0>         0.0574
     30 H4         -0.3405   -2.5960   -0.0000 H         1 <0>         0.1438
     31 H5         -2.3342    1.1801    0.0287 H         1 <0>         0.1393
     32 H6         -5.6096    2.0524    0.0451 H         1 <0>         0.1044
     33 H7         -4.0673    1.9141    0.9228 H         1 <0>         0.0579
     34 H8         -4.0816    1.9127   -0.8571 H         1 <0>         0.0577
     35 H9         -5.4106   -2.5710    1.0655 H         1 <0>         0.0901
     36 H10        -5.6782   -2.0889   -0.6260 H         1 <0>         0.0924
     37 H11        -4.6544   -4.1120   -1.4525 H         1 <0>         0.1031
     38 H12        -3.8629   -4.5669    1.4659 H         1 <0>         0.0820
     39 H13        -3.6275   -5.7559    0.1588 H         1 <0>         0.1157
     40 H14        -8.2144   -5.4203    1.0350 H         1 <0>         0.1548
     41 H15        -7.2893   -7.9074   -2.3379 H         1 <0>         0.1542
     42 H16        -9.9425   -9.1772   -2.8680 H         1 <0>         0.3933
     43 H17       -11.8431   -8.4192   -0.4822 H         1 <0>         0.3922
     44 H18       -11.1245   -6.0101    1.4042 H         1 <0>         0.3930
@<TRIPOS>BOND
     1    1    2 1
     2    1   27 1
     3    1   28 1
     4    1   29 1
     5    2    3 1
     6    3    8 ar
     7    3    4 ar
     8    4    5 ar
     9    4   30 1
    10    5   14 1
    11    5    6 ar
    12    6    7 ar
    13    6   11 1
    14    7    8 ar
    15    7    9 1
    16    8   31 1
    17    9   10 1
    18   10   32 1
    19   10   33 1
    20   10   34 1
    21   11   12 1
    22   11   35 1
    23   11   36 1
    24   12   13 1
    25   12   15 1
    26   12   37 1
    27   13   14 1
    28   13   38 1
    29   13   39 1
    30   15   16 1
    31   16   17 2
    32   16   18 1
    33   18   23 ar
    34   18   19 ar
    35   19   20 ar
    36   19   40 1
    37   20   21 ar
    38   20   26 1
    39   21   22 ar
    40   21   25 1
    41   22   23 ar
    42   22   24 1
    43   23   41 1
    44   24   42 1
    45   25   43 1
    46   26   44 1
@<TRIPOS>MOLECULE
CHEMBL69566
   38    41     0     0     0
SMALL
USER_CHARGES

@<TRIPOS>ATOM
      1 C1         -0.0187    1.5258    0.0104 C.3       1 <0>        -0.1822
      2 C2          0.0021   -0.0041    0.0020 C.3       1 <0>         0.0117
      3 C3         -1.4238   -0.5001   -0.1243 C.3       1 <0>         0.1147
      4 N1         -1.4576   -1.9589   -0.0042 N.pl3     1 <0>        -0.5164
      5 C4         -1.1567   -2.5839    1.2012 C.ar      1 <0>         0.0014
      6 C5         -0.6960   -2.0412    2.3726 C.ar      1 <0>        -0.1240
      7 C6         -0.6256   -2.8529    3.4879 C.ar      1 <0>        -0.0999
      8 C7         -0.9156   -4.2082    3.3645 C.ar      1 <0>        -0.0346
      9 C8         -1.2795   -4.7677    2.1560 C.ar      1 <0>        -0.0592
     10 C9         -1.4138   -3.9450    1.0337 C.ar      1 <0>         0.1184
     11 N2         -1.7474   -4.1100   -0.2716 N.2       1 <0>        -0.5250
     12 C10        -1.7641   -2.9399   -0.8832 C.2       1 <0>         0.4795
     13 S1         -2.1313   -2.6934   -2.5888 S.3       1 <0>        -0.7495
     14 Cl1        -0.8165   -5.2237    4.7690 Cl        1 <0>        -0.0644
     15 C11        -0.1275   -0.6365    2.3935 C.3       1 <0>         0.0518
     16 N3          0.7174   -0.4642    1.2010 N.4       1 <0>        -0.3792
     17 C12         1.7715    0.5094    1.5154 C.3       1 <0>         0.0195
     18 C13         2.6113   -0.0079    2.6850 C.3       1 <0>        -0.2097
     19 C14         2.5943    0.8051    3.9810 C.3       1 <0>        -0.1696
     20 C15         3.8383    0.8112    3.0904 C.3       1 <0>        -0.1491
     21 H1          1.0039    1.9031    0.0027 H         1 <0>         0.0884
     22 H2         -0.5459    1.8868   -0.8726 H         1 <0>         0.1082
     23 H3         -0.5289    1.8773    0.9072 H         1 <0>         0.0811
     24 H4          0.5568   -0.3336   -0.8765 H         1 <0>         0.1410
     25 H5         -2.0321   -0.0579    0.6648 H         1 <0>         0.0949
     26 H6         -1.8242   -0.2075   -1.0949 H         1 <0>         0.1450
     27 H7         -0.3478   -2.4398    4.4463 H         1 <0>         0.1411
     28 H8         -1.4581   -5.8300    2.0783 H         1 <0>         0.1431
     29 H9         -0.9405    0.0894    2.3761 H         1 <0>         0.1293
     30 H10         0.4725   -0.4960    3.2926 H         1 <0>         0.1457
     31 H11         2.4100    0.6480    0.6429 H         1 <0>         0.1318
     32 H12         1.3168    1.4619    1.7878 H         1 <0>         0.1343
     33 H13         2.6791   -1.0923    2.7716 H         1 <0>         0.1265
     34 H14         1.9848    1.7086    4.0003 H         1 <0>         0.1054
     35 H15         2.6507    0.2556    4.9206 H         1 <0>         0.1100
     36 H16         4.7132    0.2657    3.4441 H         1 <0>         0.1101
     37 H17         4.0473    1.7187    2.5238 H         1 <0>         0.1058
     38 H18         1.1567   -1.3479    0.9910 H         1 <0>         0.4240
@<TRIPOS>BOND
     1    1    2 1
     2    1   21 1
     3    1   22 1
     4    1   23 1
     5    2   16 1
     6    2    3 1
     7    2   24 1
     8    3    4 1
     9    3   25 1
    10    3   26 1
    11    4   12 1
    12    4    5 1
    13    5   10 ar
    14    5    6 ar
    15    6    7 ar
    16    6   15 1
    17    7    8 ar
    18    7   27 1
    19    8    9 ar
    20    8   14 1
    21    9   10 ar
    22    9   28 1
    23   10   11 1
    24   11   12 2
    25   12   13 1
    26   15   16 1
    27   15   29 1
    28   15   30 1
    29   16   17 1
    30   16   38 1
    31   17   18 1
    32   17   31 1
    33   17   32 1
    34   18   20 1
    35   18   19 1
    36   18   33 1
    37   19   20 1
    38   19   34 1
    39   19   35 1
    40   20   36 1
    41   20   37 1
@<TRIPOS>MOLECULE
CHEMBL69566__1
   38    41     0     0     0
SMALL
USER_CHARGES

@<TRIPOS>ATOM
      1 C1         -0.0187    1.5258    0.0104 C.3       1 <0>        -0.1822
      2 C2          0.0021   -0.0041    0.0020 C.3       1 <0>         0.0764
      3 C3         -1.4419   -0.5353    0.0051 C.3       1 <0>         0.1162
      4 N1         -1.4103   -2.0016    0.0918 N.pl3     1 <0>        -0.4579
      5 C4         -1.0388   -2.6460    1.2691 C.ar      1 <0>         0.0833
      6 C5         -0.5429   -2.1005    2.4386 C.ar      1 <0>        -0.0356
      7 C6         -0.3634   -2.9212    3.5275 C.ar      1 <0>        -0.0875
      8 C7         -0.5975   -4.2854    3.3939 C.ar      1 <0>        -0.0155
      9 C8         -1.0078   -4.8348    2.1907 C.ar      1 <0>        -0.0883
     10 C9         -1.2366   -4.0072    1.1015 C.ar      1 <0>         0.0964
     11 N2         -1.6362   -4.1678   -0.2213 N.pl3     1 <0>        -0.5770
     12 C10        -1.7095   -2.9458   -0.8043 C.2       1 <0>         0.5154
     13 S1         -2.1224   -2.6570   -2.4405 S.2       1 <0>        -0.5930
     14 Cl1        -0.3695   -5.3235    4.7665 Cl        1 <0>        -0.0487
     15 C11        -0.1022   -0.6532    2.4101 C.3       1 <0>         0.0962
     16 N3          0.7196   -0.4942    1.2040 N.3       1 <0>        -0.5537
     17 C12         1.9062    0.3267    1.4800 C.3       1 <0>         0.0933
     18 C13         2.7520   -0.3470    2.5623 C.3       1 <0>        -0.1534
     19 C14         2.9248    0.3961    3.8885 C.3       1 <0>        -0.1846
     20 C15         4.0965    0.2950    2.9100 C.3       1 <0>        -0.1733
     21 H1          1.0039    1.9031    0.0027 H         1 <0>         0.0741
     22 H2         -0.5459    1.8868   -0.8726 H         1 <0>         0.0742
     23 H3         -0.5289    1.8773    0.9072 H         1 <0>         0.0601
     24 H4          0.5144   -0.3547   -0.8940 H         1 <0>         0.1025
     25 H5         -1.9778   -0.1304    0.8635 H         1 <0>         0.0999
     26 H6         -1.9432   -0.2349   -0.9150 H         1 <0>         0.1269
     27 H7         -0.0443   -2.5114    4.4744 H         1 <0>         0.1505
     28 H8         -1.1485   -5.9019    2.1010 H         1 <0>         0.1485
     29 H9         -0.9721    0.0017    2.3589 H         1 <0>         0.0663
     30 H10         0.4878   -0.4243    3.2976 H         1 <0>         0.1037
     31 H11         2.4964    0.4299    0.5694 H         1 <0>         0.0821
     32 H12         1.5939    1.3127    1.8242 H         1 <0>         0.0453
     33 H13         2.6892   -1.4346    2.5989 H         1 <0>         0.1121
     34 H14         2.4359    1.3650    3.9899 H         1 <0>         0.0930
     35 H15         2.9755   -0.2026    4.7980 H         1 <0>         0.0953
     36 H16         4.9182   -0.3701    3.1756 H         1 <0>         0.0963
     37 H17         4.3785    1.1975    2.3676 H         1 <0>         0.0943
     38 H18        -1.8300   -5.0137   -0.6547 H         1 <0>         0.4486
@<TRIPOS>BOND
     1    1    2 1
     2    1   21 1
     3    1   22 1
     4    1   23 1
     5    2   16 1
     6    2    3 1
     7    2   24 1
     8    3    4 1
     9    3   25 1
    10    3   26 1
    11    4   12 1
    12    4    5 1
    13    5   10 ar
    14    5    6 ar
    15    6    7 ar
    16    6   15 1
    17    7    8 ar
    18    7   27 1
    19    8    9 ar
    20    8   14 1
    21    9   10 ar
    22    9   28 1
    23   10   11 1
    24   11   12 1
    25   11   38 1
    26   12   13 2
    27   15   16 1
    28   15   29 1
    29   15   30 1
    30   16   17 1
    31   17   18 1
    32   17   31 1
    33   17   32 1
    34   18   20 1
    35   18   19 1
    36   18   33 1
    37   19   20 1
    38   19   34 1
    39   19   35 1
    40   20   36 1
    41   20   37 1
@<TRIPOS>MOLECULE
CHEMBL69566__2
   39    42     0     0     0
SMALL
USER_CHARGES

@<TRIPOS>ATOM
      1 C1         -0.0187    1.5258    0.0104 C.3       1 <0>        -0.1833
      2 C2          0.0021   -0.0041    0.0020 C.3       1 <0>         0.0159
      3 C3         -1.4413   -0.5337   -0.0022 C.3       1 <0>         0.1056
      4 N1         -1.4123   -2.0000    0.0802 N.pl3     1 <0>        -0.4919
      5 C4         -1.0485   -2.6430    1.2600 C.ar      1 <0>         0.0473
      6 C5         -0.5667   -2.0885    2.4299 C.ar      1 <0>        -0.1155
      7 C6         -0.3970   -2.9038    3.5248 C.ar      1 <0>        -0.0513
      8 C7         -0.6247   -4.2694    3.3936 C.ar      1 <0>        -0.0181
      9 C8         -1.0208   -4.8265    2.1890 C.ar      1 <0>        -0.0568
     10 C9         -1.2419   -4.0045    1.0940 C.ar      1 <0>         0.1168
     11 N2         -1.6314   -4.1673   -0.2314 N.pl3     1 <0>        -0.5722
     12 C10        -1.7047   -2.9455   -0.8162 C.2       1 <0>         0.5051
     13 S1         -2.1104   -2.6593   -2.4546 S.2       1 <0>        -0.5176
     14 Cl1        -0.4078   -5.3006    4.7731 Cl        1 <0>        -0.0166
     15 C11        -0.1226   -0.6418    2.3972 C.3       1 <0>         0.0426
     16 N3          0.7202   -0.4933    1.2050 N.4       1 <0>        -0.3909
     17 C12         1.8043    0.4483    1.5154 C.3       1 <0>         0.0166
     18 C13         2.6374   -0.0980    2.6765 C.3       1 <0>        -0.2168
     19 C14         2.6534    0.7096    3.9759 C.3       1 <0>        -0.1699
     20 C15         3.8905    0.6836    3.0760 C.3       1 <0>        -0.1448
     21 H1          1.0039    1.9031    0.0027 H         1 <0>         0.0973
     22 H2         -0.5459    1.8868   -0.8726 H         1 <0>         0.1158
     23 H3         -0.5289    1.8773    0.9072 H         1 <0>         0.0869
     24 H4          0.5163   -0.3538   -0.8932 H         1 <0>         0.1533
     25 H5         -1.9802   -0.1307    0.8553 H         1 <0>         0.1236
     26 H6         -1.9387   -0.2298   -0.9232 H         1 <0>         0.1602
     27 H7         -0.0906   -2.4889    4.4737 H         1 <0>         0.1657
     28 H8         -1.1559   -5.8945    2.1027 H         1 <0>         0.1634
     29 H9         -0.9903    0.0140    2.3256 H         1 <0>         0.1452
     30 H10         0.4522   -0.4069    3.2930 H         1 <0>         0.1604
     31 H11         2.4401    0.5721    0.6387 H         1 <0>         0.1367
     32 H12         1.3793    1.4122    1.7951 H         1 <0>         0.1392
     33 H13         2.6745   -1.1843    2.7583 H         1 <0>         0.1249
     34 H14         2.0704    1.6302    4.0035 H         1 <0>         0.1080
     35 H15         2.7009    0.1547    4.9128 H         1 <0>         0.1122
     36 H16         4.7519    0.1116    3.4210 H         1 <0>         0.1132
     37 H17         4.1214    1.5871    2.5116 H         1 <0>         0.1089
     38 H18         1.1311   -1.3894    0.9900 H         1 <0>         0.4230
     39 H19        -1.8194   -5.0141   -0.6656 H         1 <0>         0.4579
@<TRIPOS>BOND
     1    1    2 1
     2    1   21 1
     3    1   22 1
     4    1   23 1
     5    2   16 1
     6    2    3 1
     7    2   24 1
     8    3    4 1
     9    3   25 1
    10    3   26 1
    11    4   12 1
    12    4    5 1
    13    5   10 ar
    14    5    6 ar
    15    6    7 ar
    16    6   15 1
    17    7    8 ar
    18    7   27 1
    19    8    9 ar
    20    8   14 1
    21    9   10 ar
    22    9   28 1
    23   10   11 1
    24   11   12 1
    25   11   39 1
    26   12   13 2
    27   15   16 1
    28   15   29 1
    29   15   30 1
    30   16   17 1
    31   16   38 1
    32   17   18 1
    33   17   31 1
    34   17   32 1
    35   18   20 1
    36   18   19 1
    37   18   33 1
    38   19   20 1
    39   19   34 1
    40   19   35 1
    41   20   36 1
    42   20   37 1
@<TRIPOS>MOLECULE
CHEMBL69566__3
   38    41     0     0     0
SMALL
USER_CHARGES

@<TRIPOS>ATOM
      1 C1         -0.0187    1.5258    0.0104 C.3       1 <0>        -0.1778
      2 C2          0.0021   -0.0041    0.0020 C.3       1 <0>         0.0133
      3 C3          0.5928   -0.4662   -1.3143 C.3       1 <0>         0.1122
      4 N1          2.0149   -0.1232   -1.3714 N.pl3     1 <0>        -0.5127
      5 C4          2.9344   -0.7459   -0.5340 C.ar      1 <0>         0.0020
      6 C5          2.7193   -1.6262    0.4943 C.ar      1 <0>        -0.1246
      7 C6          3.8144   -2.2343    1.0765 C.ar      1 <0>        -0.1002
      8 C7          5.0941   -1.8569    0.6816 C.ar      1 <0>        -0.0347
      9 C8          5.3033   -0.8926   -0.2840 C.ar      1 <0>        -0.0597
     10 C9          4.2029   -0.3146   -0.9238 C.ar      1 <0>         0.1181
     11 N2          4.0059    0.6193   -1.8889 N.2       1 <0>        -0.5261
     12 C10         2.7158    0.7367   -2.1448 C.2       1 <0>         0.4804
     13 S1          2.0129    1.8470   -3.3186 S.3       1 <0>        -0.7484
     14 Cl1         6.4657   -2.6194    1.4240 Cl        1 <0>        -0.0647
     15 C11         1.3311   -1.7961    1.0782 C.3       1 <0>         0.0524
     16 N3          0.7174   -0.4642    1.2010 N.4       1 <0>        -0.3810
     17 C12        -0.2284   -0.4904    2.3248 C.3       1 <0>         0.0231
     18 C13         0.5184   -0.8462    3.6118 C.3       1 <0>        -0.2088
     19 C14         0.1374   -2.1523    4.3117 C.3       1 <0>        -0.1695
     20 C15        -0.2729   -0.8101    4.9208 C.3       1 <0>        -0.1493
     21 H1          1.0039    1.9031    0.0027 H         1 <0>         0.0821
     22 H2         -0.5459    1.8868   -0.8726 H         1 <0>         0.1148
     23 H3         -0.5289    1.8773    0.9072 H         1 <0>         0.0756
     24 H4         -1.0266   -0.3603    0.0579 H         1 <0>         0.1438
     25 H5          0.4772   -1.5464   -1.4035 H         1 <0>         0.0944
     26 H6          0.0696    0.0214   -2.1369 H         1 <0>         0.1451
     27 H7          3.6786   -2.9949    1.8310 H         1 <0>         0.1408
     28 H8          6.3067   -0.5876   -0.5421 H         1 <0>         0.1428
     29 H9          0.7282   -2.4193    0.4178 H         1 <0>         0.1301
     30 H10         1.4003   -2.2612    2.0616 H         1 <0>         0.1452
     31 H11        -0.6916    0.4904    2.4327 H         1 <0>         0.1316
     32 H12        -0.9991   -1.2372    2.1336 H         1 <0>         0.1288
     33 H13         1.5646   -0.5423    3.6476 H         1 <0>         0.1269
     34 H14        -0.6453   -2.7581    3.8552 H         1 <0>         0.1056
     35 H15         0.9330   -2.7080    4.8080 H         1 <0>         0.1101
     36 H16         0.2528   -0.4828    5.8178 H         1 <0>         0.1102
     37 H17        -1.3256   -0.5329    4.8650 H         1 <0>         0.1058
     38 H18         1.4433    0.2031    1.4152 H         1 <0>         0.4221
@<TRIPOS>BOND
     1    1    2 1
     2    1   21 1
     3    1   22 1
     4    1   23 1
     5    2   16 1
     6    2    3 1
     7    2   24 1
     8    3    4 1
     9    3   25 1
    10    3   26 1
    11    4   12 1
    12    4    5 1
    13    5   10 ar
    14    5    6 ar
    15    6    7 ar
    16    6   15 1
    17    7    8 ar
    18    7   27 1
    19    8    9 ar
    20    8   14 1
    21    9   10 ar
    22    9   28 1
    23   10   11 1
    24   11   12 2
    25   12   13 1
    26   15   16 1
    27   15   29 1
    28   15   30 1
    29   16   17 1
    30   16   38 1
    31   17   18 1
    32   17   31 1
    33   17   32 1
    34   18   20 1
    35   18   19 1
    36   18   33 1
    37   19   20 1
    38   19   34 1
    39   19   35 1
    40   20   36 1
    41   20   37 1
@<TRIPOS>MOLECULE
CHEMBL69566__4
   38    41     0     0     0
SMALL
USER_CHARGES

@<TRIPOS>ATOM
      1 C1         -0.0187    1.5258    0.0104 C.3       1 <0>        -0.1389
      2 C2          0.0021   -0.0041    0.0020 C.3       1 <0>         0.0765
      3 C3          0.7156   -0.4990   -1.2681 C.3       1 <0>         0.1148
      4 N1          2.1190   -0.0662   -1.2259 N.pl3     1 <0>        -0.4546
      5 C4          3.0253   -0.6451   -0.3412 C.ar      1 <0>         0.0841
      6 C5          2.7897   -1.5569    0.6708 C.ar      1 <0>        -0.0359
      7 C6          3.8638   -2.0934    1.3415 C.ar      1 <0>        -0.0875
      8 C7          5.1437   -1.6370    1.0463 C.ar      1 <0>        -0.0157
      9 C8          5.3605   -0.6566    0.0926 C.ar      1 <0>        -0.0884
     10 C9          4.2870   -0.1450   -0.6211 C.ar      1 <0>         0.0960
     11 N2          4.0997    0.8089   -1.6164 N.pl3     1 <0>        -0.5780
     12 C10         2.7837    0.8455   -1.9408 C.2       1 <0>         0.5150
     13 S1          2.0809    1.8997   -3.0921 S.2       1 <0>        -0.5910
     14 Cl1         6.5009   -2.3114    1.8931 Cl        1 <0>        -0.0491
     15 C11         1.3523   -1.8121    1.0692 C.3       1 <0>         0.0978
     16 N3          0.7196   -0.4942    1.2040 N.3       1 <0>        -0.5563
     17 C12        -0.1453   -0.4443    2.3903 C.3       1 <0>         0.0939
     18 C13         0.6906   -0.7154    3.6427 C.3       1 <0>        -0.1518
     19 C14         0.3631   -1.9716    4.4524 C.3       1 <0>        -0.1847
     20 C15        -0.0075   -0.5913    4.9986 C.3       1 <0>        -0.1735
     21 H1          1.0039    1.9031    0.0027 H         1 <0>         0.0596
     22 H2         -0.5459    1.8868   -0.8726 H         1 <0>         0.0728
     23 H3         -0.5289    1.8773    0.9072 H         1 <0>         0.0606
     24 H4         -1.0208   -0.3805    0.0120 H         1 <0>         0.0759
     25 H5          0.6705   -1.5872   -1.3114 H         1 <0>         0.0997
     26 H6          0.2297   -0.0767   -2.1477 H         1 <0>         0.1273
     27 H7          3.7151   -2.8593    2.0883 H         1 <0>         0.1503
     28 H8          6.3598   -0.2921   -0.0941 H         1 <0>         0.1481
     29 H9          0.8474   -2.3920    0.2966 H         1 <0>         0.0660
     30 H10         1.3165   -2.3431    2.0205 H         1 <0>         0.1039
     31 H11        -0.6026    0.5423    2.4653 H         1 <0>         0.0833
     32 H12        -0.9253   -1.2006    2.3033 H         1 <0>         0.0403
     33 H13         1.7359   -0.4116    3.5852 H         1 <0>         0.1125
     34 H14        -0.4478   -2.6050    4.0928 H         1 <0>         0.0930
     35 H15         1.1930   -2.4947    4.9275 H         1 <0>         0.0953
     36 H16         0.5786   -0.2063    5.8330 H         1 <0>         0.0963
     37 H17        -1.0622   -0.3166    4.9983 H         1 <0>         0.0943
     38 H18         4.7952    1.3570   -2.0123 H         1 <0>         0.4482
@<TRIPOS>BOND
     1    1    2 1
     2    1   21 1
     3    1   22 1
     4    1   23 1
     5    2   16 1
     6    2    3 1
     7    2   24 1
     8    3    4 1
     9    3   25 1
    10    3   26 1
    11    4   12 1
    12    4    5 1
    13    5   10 ar
    14    5    6 ar
    15    6    7 ar
    16    6   15 1
    17    7    8 ar
    18    7   27 1
    19    8    9 ar
    20    8   14 1
    21    9   10 ar
    22    9   28 1
    23   10   11 1
    24   11   12 1
    25   11   38 1
    26   12   13 2
    27   15   16 1
    28   15   29 1
    29   15   30 1
    30   16   17 1
    31   17   18 1
    32   17   31 1
    33   17   32 1
    34   18   20 1
    35   18   19 1
    36   18   33 1
    37   19   20 1
    38   19   34 1
    39   19   35 1
    40   20   36 1
    41   20   37 1
@<TRIPOS>MOLECULE
CHEMBL69566__5
   39    42     0     0     0
SMALL
USER_CHARGES

@<TRIPOS>ATOM
      1 C1         -0.0187    1.5258    0.0104 C.3       1 <0>        -0.1811
      2 C2          0.0021   -0.0041    0.0020 C.3       1 <0>         0.0159
      3 C3          0.7089   -0.4975   -1.2710 C.3       1 <0>         0.1044
      4 N1          2.1121   -0.0646   -1.2367 N.pl3     1 <0>        -0.4888
      5 C4          3.0196   -0.6488   -0.3576 C.ar      1 <0>         0.0482
      6 C5          2.7777   -1.5676    0.6452 C.ar      1 <0>        -0.1162
      7 C6          3.8503   -2.1155    1.3099 C.ar      1 <0>        -0.0514
      8 C7          5.1316   -1.6605    1.0183 C.ar      1 <0>        -0.0184
      9 C8          5.3530   -0.6718    0.0740 C.ar      1 <0>        -0.0569
     10 C9          4.2816   -0.1506   -0.6361 C.ar      1 <0>         0.1162
     11 N2          4.0941    0.8087   -1.6258 N.pl3     1 <0>        -0.5727
     12 C10         2.7773    0.8483   -1.9490 C.2       1 <0>         0.5048
     13 S1          2.0749    1.9076   -3.0959 S.2       1 <0>        -0.5166
     14 Cl1         6.4862   -2.3481    1.8584 Cl        1 <0>        -0.0168
     15 C11         1.3395   -1.8143    1.0475 C.3       1 <0>         0.0435
     16 N3          0.7202   -0.4933    1.2050 N.4       1 <0>        -0.3925
     17 C12        -0.2313   -0.5551    2.3225 C.3       1 <0>         0.0201
     18 C13         0.5115   -0.9375    3.6043 C.3       1 <0>        -0.2163
     19 C14         0.1371   -2.2637    4.2689 C.3       1 <0>        -0.1697
     20 C15        -0.2870   -0.9405    4.9094 C.3       1 <0>        -0.1450
     21 H1          1.0039    1.9031    0.0027 H         1 <0>         0.0763
     22 H2         -0.5459    1.8868   -0.8726 H         1 <0>         0.1222
     23 H3         -0.5289    1.8773    0.9072 H         1 <0>         0.0888
     24 H4         -1.0211   -0.3796    0.0141 H         1 <0>         0.1651
     25 H5          0.6639   -1.5857   -1.3148 H         1 <0>         0.1238
     26 H6          0.2181   -0.0751   -2.1478 H         1 <0>         0.1601
     27 H7          3.6992   -2.8886    2.0489 H         1 <0>         0.1656
     28 H8          6.3537   -0.3088   -0.1081 H         1 <0>         0.1632
     29 H9          0.8251   -2.3780    0.2693 H         1 <0>         0.1464
     30 H10         1.3034   -2.3590    1.9910 H         1 <0>         0.1600
     31 H11        -0.7028    0.4190    2.4526 H         1 <0>         0.1361
     32 H12        -0.9951   -1.3028    2.1084 H         1 <0>         0.1353
     33 H13         1.5550   -0.6264    3.6534 H         1 <0>         0.1251
     34 H14        -0.6384   -2.8639    3.7930 H         1 <0>         0.1082
     35 H15         0.9344   -2.8256    4.7554 H         1 <0>         0.1123
     36 H16         0.2313   -0.6319    5.8172 H         1 <0>         0.1133
     37 H17        -1.3415   -0.6702    4.8548 H         1 <0>         0.1089
     38 H18         1.4414    0.1722    1.4398 H         1 <0>         0.4211
     39 H19         4.7896    1.3585   -2.0193 H         1 <0>         0.4577
@<TRIPOS>BOND
     1    1    2 1
     2    1   21 1
     3    1   22 1
     4    1   23 1
     5    2   16 1
     6    2    3 1
     7    2   24 1
     8    3    4 1
     9    3   25 1
    10    3   26 1
    11    4   12 1
    12    4    5 1
    13    5   10 ar
    14    5    6 ar
    15    6    7 ar
    16    6   15 1
    17    7    8 ar
    18    7   27 1
    19    8    9 ar
    20    8   14 1
    21    9   10 ar
    22    9   28 1
    23   10   11 1
    24   11   12 1
    25   11   39 1
    26   12   13 2
    27   15   16 1
    28   15   29 1
    29   15   30 1
    30   16   17 1
    31   16   38 1
    32   17   18 1
    33   17   31 1
    34   17   32 1
    35   18   20 1
    36   18   19 1
    37   18   33 1
    38   19   20 1
    39   19   34 1
    40   19   35 1
    41   20   36 1
    42   20   37 1
@<TRIPOS>MOLECULE
CHEMBL138969
   36    39     0     0     0
SMALL
USER_CHARGES

@<TRIPOS>ATOM
      1 C1         -0.0384    1.5262   -0.0019 C.3       1 <0>        -0.1547
      2 C2         -0.0178   -0.0037   -0.0096 C.3       1 <0>        -0.0992
      3 C3          0.7182   -0.4975   -1.2568 C.3       1 <0>         0.1811
      4 C4          2.1302   -0.0422   -1.1915 C.2       1 <0>         0.4228
      5 O1          2.6452    0.1489   -0.1083 O.2       1 <0>        -0.4281
      6 C5          2.8869    0.1727   -2.3678 C.2       1 <0>        -0.0939
      7 C6          4.1774    0.6928   -2.3544 C.2       1 <0>        -0.0719
      8 C7          4.5738    0.8404   -3.6821 C.2       1 <0>        -0.2060
      9 C8          3.5604    0.4100   -4.4684 C.2       1 <0>         0.0670
     10 N1          2.5443   -0.0505   -3.6779 N.pl3     1 <0>        -0.3632
     11 C9          1.4188   -0.6907   -4.2091 C.ar      1 <0>         0.3031
     12 C10         0.1706   -0.6508   -3.5762 C.ar      1 <0>         0.0638
     13 C11        -0.9126   -1.2828   -4.1677 C.ar      1 <0>        -0.0560
     14 C12        -0.7197   -1.9510   -5.3681 C.ar      1 <0>        -0.1525
     15 C13         0.5409   -1.9650   -5.9323 C.ar      1 <0>         0.1242
     16 N2          1.5511   -1.3503   -5.3532 N.ar      1 <0>        -0.4806
     17 O2          0.0455   -0.0245   -2.3975 O.3       1 <0>        -0.2966
     18 C14         0.6956   -2.0043   -1.2690 C.2       1 <0>        -0.2090
     19 C15         1.6372   -2.8756   -0.8315 C.2       1 <0>        -0.1234
     20 C16         1.3985   -4.2325   -0.9433 C.2       1 <0>        -0.1593
     21 C17         0.2298   -4.6517   -1.4872 C.2       1 <0>        -0.1635
     22 S1         -0.5816   -3.1048   -1.8562 S.3       1 <0>         0.0767
     23 H1          0.9842    1.9033    0.0065 H         1 <0>         0.0588
     24 H2         -0.5515    1.8871   -0.8933 H         1 <0>         0.0644
     25 H3         -0.5628    1.8780    0.8866 H         1 <0>         0.0675
     26 H4          0.4953   -0.3646    0.8818 H         1 <0>         0.0986
     27 H5         -1.0404   -0.3808   -0.0181 H         1 <0>         0.0840
     28 H6          4.7618    0.9366   -1.4795 H         1 <0>         0.1604
     29 H7          5.5217    1.2298   -4.0230 H         1 <0>         0.1571
     30 H8          3.5548    0.4277   -5.5482 H         1 <0>         0.1790
     31 H9         -1.8871   -1.2557   -3.7030 H         1 <0>         0.1549
     32 H10        -1.5432   -2.4532   -5.8541 H         1 <0>         0.1546
     33 H11         0.7006   -2.4885   -6.8633 H         1 <0>         0.1736
     34 H12         2.5604   -2.5151   -0.4023 H         1 <0>         0.1348
     35 H13         2.1323   -4.9480   -0.6028 H         1 <0>         0.1401
     36 H14        -0.1212   -5.6598   -1.6510 H         1 <0>         0.1915
@<TRIPOS>BOND
     1    1    2 1
     2    1   23 1
     3    1   24 1
     4    1   25 1
     5    2    3 1
     6    2   26 1
     7    2   27 1
     8    3   17 1
     9    3    4 1
    10    3   18 1
    11    4    5 2
    12    4    6 1
    13    6   10 1
    14    6    7 2
    15    7    8 1
    16    7   28 1
    17    8    9 2
    18    8   29 1
    19    9   10 1
    20    9   30 1
    21   10   11 1
    22   11   16 ar
    23   11   12 ar
    24   12   13 ar
    25   12   17 1
    26   13   14 ar
    27   13   31 1
    28   14   15 ar
    29   14   32 1
    30   15   16 ar
    31   15   33 1
    32   18   22 1
    33   18   19 2
    34   19   20 1
    35   19   34 1
    36   20   21 2
    37   20   35 1
    38   21   22 1
    39   21   36 1
@<TRIPOS>MOLECULE
CHEMBL138969__1
   36    39     0     0     0
SMALL
USER_CHARGES

@<TRIPOS>ATOM
      1 C1          0.5353   -0.7802    1.2079 C.3       1 <0>        -0.1575
      2 C2          0.0021   -0.0041    0.0020 C.3       1 <0>        -0.1513
      3 C3          0.7930   -0.3967   -1.2475 C.3       1 <0>         0.1805
      4 C4          0.1600    0.2348   -2.4331 C.2       1 <0>         0.4131
      5 O1         -0.7002   -0.3689   -3.0418 O.2       1 <0>        -0.4212
      6 C5          0.5402    1.5271   -2.8667 C.2       1 <0>        -0.0938
      7 C6          0.0451    2.1133   -4.0274 C.2       1 <0>        -0.0698
      8 C7          0.6944    3.3370   -4.1779 C.2       1 <0>        -0.2053
      9 C8          1.5423    3.4883   -3.1344 C.2       1 <0>         0.0669
     10 N1          1.4192    2.4143   -2.2974 N.pl3     1 <0>        -0.3664
     11 C9          2.0671    2.3574   -1.0582 C.ar      1 <0>         0.2981
     12 C10         2.4426    1.1444   -0.4684 C.ar      1 <0>         0.0718
     13 C11         3.1064    1.1566    0.7489 C.ar      1 <0>        -0.0664
     14 C12         3.3656    2.3778    1.3539 C.ar      1 <0>        -0.1526
     15 C13         2.9549    3.5373    0.7261 C.ar      1 <0>         0.1236
     16 N2          2.3326    3.4980   -0.4336 N.ar      1 <0>        -0.4792
     17 O2          2.1342   -0.0104   -1.0753 O.3       1 <0>        -0.2970
     18 C14         0.7351   -1.8940   -1.4079 C.2       1 <0>        -0.1489
     19 C15         1.6507   -2.7297   -1.9563 C.2       1 <0>        -0.1212
     20 C16         1.3821   -4.0851   -1.9960 C.2       1 <0>        -0.1601
     21 C17         0.2112   -4.5384   -1.4855 C.2       1 <0>        -0.1685
     22 S1         -0.5535   -3.0283   -0.9180 S.3       1 <0>         0.0857
     23 H1          0.3230   -1.8416    1.0796 H         1 <0>         0.0725
     24 H2          1.6122   -0.6321    1.2880 H         1 <0>         0.0637
     25 H3          0.0505   -0.4198    2.1152 H         1 <0>         0.0686
     26 H4         -1.0516   -0.2410   -0.1456 H         1 <0>         0.0911
     27 H5          0.1124    1.0655    0.1806 H         1 <0>         0.0753
     28 H6         -0.7018    1.6979   -4.6876 H         1 <0>         0.1607
     29 H7          0.5475    4.0397   -4.9847 H         1 <0>         0.1575
     30 H8          2.2101    4.3241   -2.9865 H         1 <0>         0.1795
     31 H9          3.4152    0.2336    1.2169 H         1 <0>         0.1567
     32 H10         3.8814    2.4211    2.3018 H         1 <0>         0.1552
     33 H11         3.1471    4.4916    1.1938 H         1 <0>         0.1750
     34 H12         2.5760   -2.3424   -2.3565 H         1 <0>         0.1360
     35 H13         2.0944   -4.7725   -2.4278 H         1 <0>         0.1377
     36 H14        -0.1609   -5.5509   -1.4321 H         1 <0>         0.1900
@<TRIPOS>BOND
     1    1    2 1
     2    1   23 1
     3    1   24 1
     4    1   25 1
     5    2    3 1
     6    2   26 1
     7    2   27 1
     8    3   17 1
     9    3    4 1
    10    3   18 1
    11    4    5 2
    12    4    6 1
    13    6   10 1
    14    6    7 2
    15    7    8 1
    16    7   28 1
    17    8    9 2
    18    8   29 1
    19    9   10 1
    20    9   30 1
    21   10   11 1
    22   11   16 ar
    23   11   12 ar
    24   12   13 ar
    25   12   17 1
    26   13   14 ar
    27   13   31 1
    28   14   15 ar
    29   14   32 1
    30   15   16 ar
    31   15   33 1
    32   18   22 1
    33   18   19 2
    34   19   20 1
    35   19   34 1
    36   20   21 2
    37   20   35 1
    38   21   22 1
    39   21   36 1
@<TRIPOS>MOLECULE
CHEMBL100968
   47    50     0     0     0
SMALL
USER_CHARGES

@<TRIPOS>ATOM
      1 C1         -0.0187    1.5258    0.0104 C.3       1 <0>        -0.1712
      2 C2          0.0021   -0.0041    0.0020 C.3       1 <0>         0.1376
      3 N1         -1.3723   -0.5112    0.0124 N.pl3     1 <0>        -0.5795
      4 C3         -2.0242   -0.7562    1.2209 C.ar      1 <0>         0.3610
      5 C4         -3.1930   -0.0728    1.5495 C.ar      1 <0>         0.0912
      6 C5         -3.8445   -0.3880    2.7374 C.ar      1 <0>        -0.0861
      7 C6         -3.2864   -1.3507    3.5670 C.ar      1 <0>        -0.1547
      8 C7         -2.1085   -1.9632    3.1920 C.ar      1 <0>         0.1107
      9 N2         -1.5193   -1.6575    2.0516 N.ar      1 <0>        -0.4741
     10 N3         -3.6959    0.9504    0.7502 N.am      1 <0>        -0.5376
     11 C8         -3.7350    0.9787   -0.5738 C.2       1 <0>         0.5745
     12 O1         -4.2323    1.9586   -1.0940 O.2       1 <0>        -0.5223
     13 C9         -3.2298   -0.0695   -1.4658 C.ar      1 <0>        -0.1946
     14 C10        -2.0402   -0.7469   -1.1771 C.ar      1 <0>         0.4124
     15 N4         -1.5584   -1.6315   -2.0382 N.ar      1 <0>        -0.4953
     16 C11        -2.1937   -1.9342   -3.1535 C.ar      1 <0>         0.1572
     17 C12        -3.3988   -1.3376   -3.4761 C.ar      1 <0>        -0.1544
     18 C13        -3.9308   -0.3970   -2.6315 C.ar      1 <0>         0.0007
     19 C14        -4.1225   -1.7216   -4.7410 C.3       1 <0>        -0.0683
     20 C15        -5.0716   -2.8862   -4.4520 C.3       1 <0>        -0.0680
     21 C16        -5.7954   -3.2702   -5.7168 C.ar      1 <0>        -0.1898
     22 C17        -7.0009   -2.6749   -6.0533 C.ar      1 <0>         0.1512
     23 N5         -7.6077   -3.0375   -7.1720 N.ar      1 <0>        -0.5173
     24 C18        -7.0795   -3.9516   -7.9610 C.ar      1 <0>         0.2899
     25 N6         -5.9352   -4.5388   -7.6732 N.ar      1 <0>        -0.5173
     26 C19        -5.2686   -4.2231   -6.5745 C.ar      1 <0>         0.1517
     27 C20        -4.2396    2.1189    1.4468 C.3       1 <0>         0.0649
     28 H1          1.0039    1.9031    0.0027 H         1 <0>         0.0726
     29 H2         -0.5459    1.8868   -0.8726 H         1 <0>         0.0538
     30 H3         -0.5289    1.8773    0.9072 H         1 <0>         0.0537
     31 H4          0.5123   -0.3556   -0.8948 H         1 <0>         0.0835
     32 H5          0.5293   -0.3651    0.8851 H         1 <0>         0.0841
     33 H6         -4.7655    0.1064    3.0088 H         1 <0>         0.1472
     34 H7         -3.7687   -1.6170    4.4959 H         1 <0>         0.1477
     35 H8         -1.6624   -2.7026    3.8407 H         1 <0>         0.1669
     36 H9         -1.7648   -2.6611   -3.8273 H         1 <0>         0.1668
     37 H10        -4.8681    0.0851   -2.8672 H         1 <0>         0.1470
     38 H11        -4.6946   -0.8684   -5.1055 H         1 <0>         0.0815
     39 H12        -3.3976   -2.0227   -5.4972 H         1 <0>         0.0839
     40 H13        -4.4995   -3.7394   -4.0874 H         1 <0>         0.0836
     41 H14        -5.7966   -2.5851   -3.6957 H         1 <0>         0.0813
     42 H15        -7.4393   -1.9254   -5.4110 H         1 <0>         0.1671
     43 H16        -7.5983   -4.2270   -8.8672 H         1 <0>         0.1970
     44 H17        -4.3290   -4.7045   -6.3470 H         1 <0>         0.1682
     45 H18        -3.4469    2.8508    1.6019 H         1 <0>         0.0677
     46 H19        -5.0324    2.5640    0.8456 H         1 <0>         0.0938
     47 H20        -4.6439    1.8114    2.4111 H         1 <0>         0.0801
@<TRIPOS>BOND
     1    1    2 1
     2    1   28 1
     3    1   29 1
     4    1   30 1
     5    2    3 1
     6    2   31 1
     7    2   32 1
     8    3   14 1
     9    3    4 1
    10    4    9 ar
    11    4    5 ar
    12    5    6 ar
    13    5   10 1
    14    6    7 ar
    15    6   33 1
    16    7    8 ar
    17    7   34 1
    18    8    9 ar
    19    8   35 1
    20   10   11 am
    21   10   27 1
    22   11   12 2
    23   11   13 1
    24   13   18 ar
    25   13   14 ar
    26   14   15 ar
    27   15   16 ar
    28   16   17 ar
    29   16   36 1
    30   17   18 ar
    31   17   19 1
    32   18   37 1
    33   19   20 1
    34   19   38 1
    35   19   39 1
    36   20   21 1
    37   20   40 1
    38   20   41 1
    39   21   26 ar
    40   21   22 ar
    41   22   23 ar
    42   22   42 1
    43   23   24 ar
    44   24   25 ar
    45   24   43 1
    46   25   26 ar
    47   26   44 1
    48   27   45 1
    49   27   46 1
    50   27   47 1
@<TRIPOS>MOLECULE
CHEMBL436392
   70    74     0     0     0
SMALL
USER_CHARGES

@<TRIPOS>ATOM
      1 C1         -1.7537   -4.0551    4.2990 C.3       1 <0>        -0.1657
      2 C2         -1.3263   -4.6046    2.9366 C.3       1 <0>         0.1329
      3 C3         -1.7486   -6.0708    2.8227 C.3       1 <0>        -0.1735
      4 N1         -1.9682   -3.8275    1.8734 N.pl3     1 <0>        -0.6954
      5 C4         -1.3630   -3.7301    0.6146 C.ar      1 <0>         0.2267
      6 C5         -0.1995   -4.4347    0.3353 C.ar      1 <0>        -0.0911
      7 C6          0.3640   -4.3069   -0.9272 C.ar      1 <0>        -0.0754
      8 C7         -0.2428   -3.4907   -1.8600 C.ar      1 <0>         0.0719
      9 N2         -1.3492   -2.8312   -1.5692 N.ar      1 <0>        -0.4167
     10 C8         -1.9236   -2.9270   -0.3817 C.ar      1 <0>         0.3172
     11 N3         -3.0933   -2.2174   -0.1206 N.pl3     1 <0>        -0.6308
     12 C9         -4.3965   -2.8639   -0.2943 C.3       1 <0>         0.0964
     13 C10        -4.4107   -4.3790   -0.5066 C.3       1 <0>        -0.1882
     14 C11        -4.7210   -3.4400   -1.6740 C.3       1 <0>        -0.1955
     15 C12        -3.0205   -0.8246    0.3277 C.3       1 <0>         0.1635
     16 C13        -2.4183    0.0380   -0.7838 C.3       1 <0>        -0.1529
     17 C14        -2.3757    1.4988   -0.3246 C.3       1 <0>         0.0831
     18 N4         -1.6549    1.5720    0.9536 N.am      1 <0>        -0.6214
     19 C15        -2.0956    0.7156    2.0632 C.3       1 <0>         0.1161
     20 C16        -2.1413   -0.7364    1.5772 C.3       1 <0>        -0.1446
     21 C17        -0.6090    2.4084    1.1052 C.2       1 <0>         0.5956
     22 O1          0.0567    2.3716    2.1228 O.2       1 <0>        -0.5221
     23 C18        -0.2724    3.3653    0.0406 C.2       1 <0>        -0.0204
     24 C19         0.9338    3.9691   -0.1233 C.2       1 <0>        -0.1017
     25 C20         0.8445    4.8110   -1.2582 C.ar      1 <0>        -0.0694
     26 C21         1.7556    5.6643   -1.8952 C.ar      1 <0>        -0.1606
     27 C22         1.3615    6.3724   -3.0124 C.ar      1 <0>         0.2610
     28 C23         0.0635    6.2418   -3.5075 C.ar      1 <0>        -0.1768
     29 C24        -0.8402    5.4078   -2.8909 C.ar      1 <0>        -0.1018
     30 C25        -0.4638    4.6837   -1.7630 C.ar      1 <0>         0.0354
     31 N5         -1.1301    3.7891   -0.9554 N.pl3     1 <0>        -0.5939
     32 H1         -2.0508    3.5048   -1.0668 H         1 <0>         0.4062
     33 N6          2.2680    7.2260   -3.6514 N.2       1 <0>        -1.0972
     34 S1          1.7993    8.0776   -4.9921 S.o2      1 <0>         2.5235
     35 O2          1.5165    7.0867   -5.9705 O.2       1 <0>        -1.0350
     36 O3          0.7781    8.9503   -4.5287 O.2       1 <0>        -1.0323
     37 C26         3.2650    9.0315   -5.4744 C.3       1 <0>        -0.6352
     38 H2         -1.3438   -4.6840    5.0893 H         1 <0>         0.0844
     39 H3         -1.3802   -3.0376    4.4139 H         1 <0>         0.0690
     40 H4         -2.8418   -4.0523    4.3646 H         1 <0>         0.0661
     41 H5         -0.2433   -4.5297    2.8382 H         1 <0>         0.0907
     42 H6         -2.8315   -6.1457    2.9212 H         1 <0>         0.0662
     43 H7         -1.4440   -6.4622    1.8521 H         1 <0>         0.0587
     44 H8         -1.2710   -6.6489    3.6138 H         1 <0>         0.0783
     45 H9         -2.8125   -3.3805    2.0416 H         1 <0>         0.4161
     46 H10         0.2567   -5.0670    1.0827 H         1 <0>         0.1713
     47 H11         1.2689   -4.8410   -1.1767 H         1 <0>         0.1845
     48 H12         0.1940   -3.3896   -2.8426 H         1 <0>         0.2046
     49 H13        -5.2174   -2.4273    0.2746 H         1 <0>         0.1451
     50 H14        -3.4506   -4.8948   -0.5170 H         1 <0>         0.0893
     51 H15        -5.2411   -4.9395   -0.0772 H         1 <0>         0.1132
     52 H16        -5.7554   -3.3828   -2.0127 H         1 <0>         0.1127
     53 H17        -3.9649   -3.3381   -2.4525 H         1 <0>         0.0870
     54 H18        -4.0226   -0.4659    0.5628 H         1 <0>         0.1108
     55 H19        -1.4067   -0.3043   -1.0023 H         1 <0>         0.0624
     56 H20        -3.0322   -0.0437   -1.6808 H         1 <0>         0.0872
     57 H21        -1.8582    2.1015   -1.0710 H         1 <0>         0.1153
     58 H22        -3.3920    1.8702   -0.1928 H         1 <0>         0.0788
     59 H23        -1.3933    0.8016    2.8923 H         1 <0>         0.1029
     60 H24        -3.0890    1.0231    2.3897 H         1 <0>         0.0738
     61 H25        -2.5581   -1.3693    2.3607 H         1 <0>         0.0814
     62 H26        -1.1324   -1.0715    1.3365 H         1 <0>         0.0668
     63 H27         1.8047    3.8315    0.5004 H         1 <0>         0.1433
     64 H28         2.7607    5.7674   -1.5138 H         1 <0>         0.1166
     65 H29        -0.2344    6.8006   -4.3823 H         1 <0>         0.1117
     66 H30        -1.8425    5.3144   -3.2823 H         1 <0>         0.1052
     67 H31         4.0855    8.3493   -5.6965 H         1 <0>         0.1155
     68 H32         3.0368    9.6257   -6.3592 H         1 <0>         0.1018
     69 H33         3.5532    9.6927   -4.6571 H         1 <0>         0.1162
     70 H34        -1.7530   -2.2646   -2.2451 H         1 <0>         0.4410
@<TRIPOS>BOND
     1    1    2 1
     2    1   38 1
     3    1   39 1
     4    1   40 1
     5    2    3 1
     6    2    4 1
     7    2   41 1
     8    3   42 1
     9    3   43 1
    10    3   44 1
    11    4    5 1
    12    4   45 1
    13    5   10 ar
    14    5    6 ar
    15    6    7 ar
    16    6   46 1
    17    7    8 ar
    18    7   47 1
    19    8    9 ar
    20    8   48 1
    21    9   10 ar
    22    9   70 1
    23   10   11 1
    24   11   12 1
    25   11   15 1
    26   12   14 1
    27   12   13 1
    28   12   49 1
    29   13   14 1
    30   13   50 1
    31   13   51 1
    32   14   52 1
    33   14   53 1
    34   15   20 1
    35   15   16 1
    36   15   54 1
    37   16   17 1
    38   16   55 1
    39   16   56 1
    40   17   18 1
    41   17   57 1
    42   17   58 1
    43   18   19 1
    44   18   21 am
    45   19   20 1
    46   19   59 1
    47   19   60 1
    48   20   61 1
    49   20   62 1
    50   21   22 2
    51   21   23 1
    52   23   31 1
    53   23   24 2
    54   24   25 1
    55   24   63 1
    56   25   30 ar
    57   25   26 ar
    58   26   27 ar
    59   26   64 1
    60   27   28 ar
    61   27   33 1
    62   28   29 ar
    63   28   65 1
    64   29   30 ar
    65   29   66 1
    66   30   31 1
    67   31   32 1
    68   33   34 1
    69   34   35 2
    70   34   36 2
    71   34   37 1
    72   37   67 1
    73   37   68 1
    74   37   69 1
@<TRIPOS>MOLECULE
CHEMBL337338
   45    46     0     0     0
SMALL
USER_CHARGES

@<TRIPOS>ATOM
      1 C1          1.0509    0.6726   -0.1886 C.3       1 <0>        -0.1448
      2 C2          0.5587   -0.7682   -0.3397 C.3       1 <0>        -0.0708
      3 C3         -0.9447   -0.7771   -0.4438 C.2       1 <0>        -0.1455
      4 C4         -1.7384   -0.7679    0.7136 C.2       1 <0>         0.5394
      5 O1         -1.2160   -0.7521    1.8153 O.2       1 <0>        -0.4785
      6 N1         -3.0811   -0.7762    0.6003 N.am      1 <0>        -0.6075
      7 H1         -3.6309   -0.7698    1.3994 H         1 <0>         0.4455
      8 C5         -3.6659   -0.7927   -0.6112 C.2       1 <0>         0.5193
      9 S1         -5.3743   -0.8022   -0.7225 S.2       1 <0>        -0.5062
     10 N2         -2.9285   -0.8013   -1.7368 N.pl3     1 <0>        -0.4847
     11 C6         -1.5554   -0.7886   -1.6681 C.2       1 <0>         0.0963
     12 S2         -0.5912   -0.7931   -3.1428 S.3       1 <0>         0.0760
     13 C7         -0.8805   -2.3869   -3.8363 C.ar      1 <0>        -0.1227
     14 C8         -1.6191   -3.3292   -3.1317 C.ar      1 <0>        -0.1294
     15 C9         -1.8439   -4.5773   -3.6781 C.ar      1 <0>        -0.0554
     16 C10        -1.3347   -4.8897   -4.9254 C.ar      1 <0>        -0.1091
     17 C11        -0.5986   -3.9542   -5.6294 C.ar      1 <0>        -0.0577
     18 C12        -0.3752   -2.7021   -5.0915 C.ar      1 <0>        -0.0924
     19 C13        -0.0448   -4.2995   -6.9878 C.3       1 <0>        -0.1190
     20 C14        -2.6446   -5.6003   -2.9143 C.3       1 <0>        -0.1208
     21 C15        -3.5924   -0.8193   -3.0426 C.3       1 <0>         0.2598
     22 O2         -4.1312    0.4746   -3.3209 O.3       1 <0>        -0.3461
     23 C16        -3.1576    1.4307   -3.7451 C.3       1 <0>         0.0433
     24 C17        -3.8279    2.7936   -3.9300 C.3       1 <0>        -0.1507
     25 H2          2.1383    0.6791   -0.1133 H         1 <0>         0.0723
     26 H3          0.7434    1.2546   -1.0574 H         1 <0>         0.0547
     27 H4          0.6217    1.1106    0.7125 H         1 <0>         0.0595
     28 H5          0.9879   -1.2061   -1.2408 H         1 <0>         0.0975
     29 H6          0.8662   -1.3501    0.5292 H         1 <0>         0.0927
     30 H7         -2.0167   -3.0860   -2.1574 H         1 <0>         0.1144
     31 H8         -1.5119   -5.8666   -5.3505 H         1 <0>         0.1316
     32 H9          0.1953   -1.9703   -5.6440 H         1 <0>         0.1334
     33 H10        -0.7729   -4.0355   -7.7548 H         1 <0>         0.0774
     34 H11         0.8777   -3.7439   -7.1560 H         1 <0>         0.0714
     35 H12         0.1612   -5.3688   -7.0351 H         1 <0>         0.0724
     36 H13        -3.7070   -5.4429   -3.1003 H         1 <0>         0.0779
     37 H14        -2.3626   -6.6009   -3.2420 H         1 <0>         0.0739
     38 H15        -2.4432   -5.4969   -1.8480 H         1 <0>         0.0677
     39 H16        -2.8698   -1.0855   -3.8140 H         1 <0>         0.1029
     40 H17        -4.3981   -1.5534   -3.0305 H         1 <0>         0.1477
     41 H18        -2.3742    1.5104   -2.9914 H         1 <0>         0.0451
     42 H19        -2.7208    1.1094   -4.6906 H         1 <0>         0.0619
     43 H20        -4.6113    2.7139   -4.6837 H         1 <0>         0.0686
     44 H21        -4.2647    3.1149   -2.9845 H         1 <0>         0.0639
     45 H22        -3.0852    3.5229   -4.2536 H         1 <0>         0.0747
@<TRIPOS>BOND
     1    1    2 1
     2    1   25 1
     3    1   26 1
     4    1   27 1
     5    2    3 1
     6    2   28 1
     7    2   29 1
     8    3   11 2
     9    3    4 1
    10    4    5 2
    11    4    6 am
    12    6    7 1
    13    6    8 1
    14    8    9 2
    15    8   10 1
    16   10   11 1
    17   10   21 1
    18   11   12 1
    19   12   13 1
    20   13   18 ar
    21   13   14 ar
    22   14   15 ar
    23   14   30 1
    24   15   16 ar
    25   15   20 1
    26   16   17 ar
    27   16   31 1
    28   17   18 ar
    29   17   19 1
    30   18   32 1
    31   19   33 1
    32   19   34 1
    33   19   35 1
    34   20   36 1
    35   20   37 1
    36   20   38 1
    37   21   22 1
    38   21   39 1
    39   21   40 1
    40   22   23 1
    41   23   24 1
    42   23   41 1
    43   23   42 1
    44   24   43 1
    45   24   44 1
    46   24   45 1
@<TRIPOS>MOLECULE
CHEMBL124248
   47    49     0     0     0
SMALL
USER_CHARGES

@<TRIPOS>ATOM
      1 C1         -0.0184    1.5028    0.0103 C.3       1 <0>        -0.0733
      2 C2          0.0021   -0.0041    0.0020 C.2       1 <0>         0.0746
      3 C3          0.0081   -0.8157   -1.1153 C.2       1 <0>        -0.0867
      4 C4         -0.0010   -0.5757   -2.5014 C.2       1 <0>         0.0308
      5 C5          0.0099   -1.6364   -3.3540 C.2       1 <0>        -0.2100
      6 C6          0.0299   -2.9465   -2.8493 C.2       1 <0>         0.2201
      7 N1          0.0380   -3.1768   -1.5637 N.2       1 <0>        -0.2644
      8 N2          0.0278   -2.1180   -0.6503 N.pl3     1 <0>        -0.2665
      9 C7          0.0330   -2.0543    0.6936 C.2       1 <0>         0.2557
     10 N3          0.0235   -0.7987    1.0712 N.2       1 <0>        -0.4541
     11 C8          0.0529   -3.2419    1.6211 C.3       1 <0>        -0.0364
     12 C9          1.5020   -3.6247    1.9285 C.3       1 <0>        -0.1113
     13 C10         1.5222   -4.8304    2.8701 C.3       1 <0>        -0.1182
     14 C11         2.9713   -5.2132    3.1776 C.3       1 <0>        -0.1191
     15 C12         2.9915   -6.4189    4.1192 C.3       1 <0>        -0.1117
     16 C13         4.4405   -6.8018    4.4266 C.3       1 <0>        -0.1666
     17 C14         4.4604   -7.9894    5.3541 C.2       1 <0>         0.3950
     18 O1          3.4184   -8.4810    5.7320 O.2       1 <0>        -0.4500
     19 C15         5.7445   -8.5524    5.8013 C.ar      1 <0>        -0.1729
     20 C16         6.9484   -7.9845    5.3723 C.ar      1 <0>        -0.0738
     21 C17         8.1474   -8.5175    5.7961 C.ar      1 <0>        -0.1335
     22 C18         8.1615   -9.6115    6.6437 C.ar      1 <0>        -0.0882
     23 C19         6.9744  -10.1794    7.0723 C.ar      1 <0>        -0.1325
     24 C20         5.7671   -9.6544    6.6620 C.ar      1 <0>        -0.0627
     25 Cl1         0.0436   -4.2851   -3.9546 Cl        1 <0>         0.0238
     26 H1          1.0042    1.8801    0.0026 H         1 <0>         0.0794
     27 H2         -0.5455    1.8639   -0.8728 H         1 <0>         0.0754
     28 H3         -0.5286    1.8543    0.9071 H         1 <0>         0.0814
     29 H4         -0.0167    0.4345   -2.8830 H         1 <0>         0.1655
     30 H5          0.0028   -1.4701   -4.4211 H         1 <0>         0.1600
     31 H6         -0.4602   -2.9873    2.5484 H         1 <0>         0.1010
     32 H7         -0.4520   -4.0827    1.1456 H         1 <0>         0.0878
     33 H8          2.0151   -3.8793    1.0011 H         1 <0>         0.0613
     34 H9          2.0069   -2.7838    2.4040 H         1 <0>         0.0702
     35 H10         1.0091   -4.5758    3.7975 H         1 <0>         0.0677
     36 H11         1.0173   -5.6713    2.3946 H         1 <0>         0.0655
     37 H12         3.4844   -5.4678    2.2502 H         1 <0>         0.0623
     38 H13         3.4761   -4.3723    3.6531 H         1 <0>         0.0640
     39 H14         2.4784   -6.1643    5.0466 H         1 <0>         0.0696
     40 H15         2.4866   -7.2598    3.6437 H         1 <0>         0.0689
     41 H16         4.9536   -7.0564    3.4993 H         1 <0>         0.0992
     42 H17         4.9454   -5.9609    4.9022 H         1 <0>         0.0997
     43 H18         6.9390   -7.1310    4.7106 H         1 <0>         0.1323
     44 H19         9.0780   -8.0803    5.4654 H         1 <0>         0.1298
     45 H20         9.1039  -10.0244    6.9722 H         1 <0>         0.1280
     46 H21         6.9936  -11.0332    7.7334 H         1 <0>         0.1297
     47 H22         4.8416  -10.0959    7.0008 H         1 <0>         0.1333
@<TRIPOS>BOND
     1    1    2 1
     2    1   26 1
     3    1   27 1
     4    1   28 1
     5    2   10 1
     6    2    3 2
     7    3    8 1
     8    3    4 1
     9    4    5 2
    10    4   29 1
    11    5    6 1
    12    5   30 1
    13    6    7 2
    14    6   25 1
    15    7    8 1
    16    8    9 1
    17    9   10 2
    18    9   11 1
    19   11   12 1
    20   11   31 1
    21   11   32 1
    22   12   13 1
    23   12   33 1
    24   12   34 1
    25   13   14 1
    26   13   35 1
    27   13   36 1
    28   14   15 1
    29   14   37 1
    30   14   38 1
    31   15   16 1
    32   15   39 1
    33   15   40 1
    34   16   17 1
    35   16   41 1
    36   16   42 1
    37   17   18 2
    38   17   19 1
    39   19   24 ar
    40   19   20 ar
    41   20   21 ar
    42   20   43 1
    43   21   22 ar
    44   21   44 1
    45   22   23 ar
    46   22   45 1
    47   23   24 ar
    48   23   46 1
    49   24   47 1
@<TRIPOS>MOLECULE
CHEMBL1160249
   52    54     0     0     0
SMALL
USER_CHARGES

@<TRIPOS>ATOM
      1 C1         -0.0187    1.5258    0.0104 C.3       1 <0>        -0.1459
      2 C2          0.0021   -0.0041    0.0020 C.3       1 <0>        -0.1376
      3 C3         -1.4333   -0.5336    0.0129 C.3       1 <0>         0.0799
      4 N1         -1.4134   -1.9985    0.0048 N.pl3     1 <0>        -0.4662
      5 C4         -1.4099   -2.6664   -1.1765 C.2       1 <0>         0.3562
      6 N2         -1.3921   -3.9684   -1.2375 N.2       1 <0>        -0.4867
      7 C5         -1.3762   -4.7162   -0.1245 C.2       1 <0>         0.2587
      8 C6         -1.3788   -4.0919    1.1269 C.2       1 <0>        -0.0166
      9 C7         -1.3931   -2.6764    1.1740 C.2       1 <0>         0.3578
     10 S1         -1.3909   -1.8466    2.6715 S.2       1 <0>        -0.5453
     11 N3         -1.3607   -5.0681    2.0635 N.2       1 <0>        -0.4331
     12 C8         -1.3474   -6.2297    1.4749 C.2       1 <0>         0.2933
     13 N4         -1.3563   -6.0617    0.1226 N.pl3     1 <0>        -0.4340
     14 C9         -1.3468   -7.1272   -0.8829 C.3       1 <0>         0.2716
     15 H1         -1.9517   -6.8413   -1.7434 H         1 <0>         0.1195
     16 C10         0.1009   -7.4385   -1.3229 C.3       1 <0>         0.0381
     17 C11         0.1121   -8.9708   -1.5203 C.3       1 <0>         0.1484
     18 H2          0.3496   -9.2210   -2.5542 H         1 <0>         0.1019
     19 C12        -1.3302   -9.4041   -1.1762 C.3       1 <0>         0.0763
     20 H3         -1.9331   -9.4694   -2.0819 H         1 <0>         0.1011
     21 O1         -1.8350   -8.3610   -0.3126 O.3       1 <0>        -0.3488
     22 C13        -1.3225  -10.7480   -0.4448 C.3       1 <0>         0.0678
     23 O2         -2.6670  -11.1862   -0.2393 O.3       1 <0>        -0.3933
     24 C14        -2.7726  -12.4391    0.4398 C.3       1 <0>         0.0331
     25 O3          1.0476   -9.5835   -0.6306 O.3       1 <0>        -0.7259
     26 P1          2.3008  -10.4560   -1.1408 P.3       1 <0>         2.2592
     27 O4          3.1451   -9.6174   -2.1261 O.2       1 <0>        -1.0880
     28 C15         3.3294  -10.9344    0.2863 C.3       1 <0>        -0.7668
     29 O5          1.7873  -11.7265   -1.8545 O.3       1 <0>        -1.0863
     30 O6          1.0269   -7.0582   -0.3031 O.3       1 <0>        -0.3314
     31 C16         1.5234   -5.7249   -0.4366 C.3       1 <0>         0.0228
     32 H4          1.0039    1.9031    0.0027 H         1 <0>         0.0622
     33 H5         -0.5459    1.8868   -0.8726 H         1 <0>         0.0569
     34 H6         -0.5289    1.8773    0.9072 H         1 <0>         0.0628
     35 H7          0.5123   -0.3556   -0.8948 H         1 <0>         0.0670
     36 H8          0.5293   -0.3651    0.8851 H         1 <0>         0.0797
     37 H9         -1.9435   -0.1821    0.9097 H         1 <0>         0.1253
     38 H10        -1.9605   -0.1726   -0.8702 H         1 <0>         0.1027
     39 H11        -1.4226   -2.1006   -2.0964 H         1 <0>         0.2226
     40 H12        -1.3313   -7.1829    1.9823 H         1 <0>         0.2307
     41 H13         0.3330   -6.9311   -2.2593 H         1 <0>         0.1013
     42 H14        -0.7878  -11.4848   -1.0442 H         1 <0>         0.0925
     43 H15        -0.8261  -10.6342    0.5190 H         1 <0>         0.0694
     44 H16        -2.3063  -12.3604    1.4219 H         1 <0>         0.0391
     45 H17        -3.8241  -12.7014    0.5568 H         1 <0>         0.0820
     46 H18        -2.2680  -13.2110   -0.1412 H         1 <0>         0.0452
     47 H19         2.7337  -11.5260    0.9814 H         1 <0>         0.0652
     48 H20         4.1778  -11.5251   -0.0591 H         1 <0>         0.0814
     49 H21         3.6916  -10.0381    0.7898 H         1 <0>         0.0674
     50 H22         2.0376   -5.6227   -1.3923 H         1 <0>         0.0503
     51 H23         0.6918   -5.0216   -0.3944 H         1 <0>         0.0305
     52 H24         2.2196   -5.5135    0.3750 H         1 <0>         0.0860
@<TRIPOS>BOND
     1    1    2 1
     2    1   32 1
     3    1   33 1
     4    1   34 1
     5    2    3 1
     6    2   35 1
     7    2   36 1
     8    3    4 1
     9    3   37 1
    10    3   38 1
    11    4    9 1
    12    4    5 1
    13    5    6 2
    14    5   39 1
    15    6    7 1
    16    7   13 1
    17    7    8 2
    18    8    9 1
    19    8   11 1
    20    9   10 2
    21   11   12 2
    22   12   13 1
    23   12   40 1
    24   13   14 1
    25   14   15 1
    26   14   21 1
    27   14   16 1
    28   16   17 1
    29   16   30 1
    30   16   41 1
    31   17   18 1
    32   17   19 1
    33   17   25 1
    34   19   20 1
    35   19   21 1
    36   19   22 1
    37   22   23 1
    38   22   42 1
    39   22   43 1
    40   23   24 1
    41   24   44 1
    42   24   45 1
    43   24   46 1
    44   25   26 1
    45   26   27 2
    46   26   28 1
    47   26   29 1
    48   28   47 1
    49   28   48 1
    50   28   49 1
    51   30   31 1
    52   31   50 1
    53   31   51 1
    54   31   52 1
@<TRIPOS>MOLECULE
CHEMBL1160249__1
   52    54     0     0     0
SMALL
USER_CHARGES

@<TRIPOS>ATOM
      1 C1         -0.0187    1.5258    0.0104 C.3       1 <0>        -0.1459
      2 C2          0.0021   -0.0041    0.0020 C.3       1 <0>        -0.1376
      3 C3         -1.4333   -0.5336    0.0129 C.3       1 <0>         0.0799
      4 N1         -1.4134   -1.9985    0.0048 N.pl3     1 <0>        -0.4662
      5 C4         -1.4099   -2.6664   -1.1765 C.2       1 <0>         0.3562
      6 N2         -1.3921   -3.9684   -1.2375 N.2       1 <0>        -0.4867
      7 C5         -1.3762   -4.7162   -0.1245 C.2       1 <0>         0.2587
      8 C6         -1.3788   -4.0919    1.1269 C.2       1 <0>        -0.0166
      9 C7         -1.3931   -2.6764    1.1740 C.2       1 <0>         0.3578
     10 S1         -1.3909   -1.8466    2.6715 S.2       1 <0>        -0.5453
     11 N3         -1.3607   -5.0681    2.0635 N.2       1 <0>        -0.4331
     12 C8         -1.3474   -6.2297    1.4749 C.2       1 <0>         0.2933
     13 N4         -1.3563   -6.0617    0.1226 N.pl3     1 <0>        -0.4340
     14 C9         -1.3468   -7.1272   -0.8829 C.3       1 <0>         0.2716
     15 H1         -1.9517   -6.8413   -1.7434 H         1 <0>         0.1195
     16 C10         0.1009   -7.4385   -1.3229 C.3       1 <0>         0.0381
     17 C11         0.1121   -8.9708   -1.5203 C.3       1 <0>         0.1484
     18 H2          0.3496   -9.2210   -2.5542 H         1 <0>         0.1019
     19 C12        -1.3302   -9.4041   -1.1762 C.3       1 <0>         0.0763
     20 H3         -1.9331   -9.4694   -2.0819 H         1 <0>         0.1011
     21 O1         -1.8350   -8.3610   -0.3126 O.3       1 <0>        -0.3488
     22 C13        -1.3225  -10.7480   -0.4448 C.3       1 <0>         0.0678
     23 O2         -2.6670  -11.1862   -0.2393 O.3       1 <0>        -0.3933
     24 C14        -2.7726  -12.4391    0.4398 C.3       1 <0>         0.0331
     25 O3          1.0476   -9.5835   -0.6306 O.3       1 <0>        -0.7259
     26 P1          2.3008  -10.4560   -1.1408 P.3       1 <0>         2.2592
     27 O4          3.1451   -9.6174   -2.1261 O.2       1 <0>        -1.0880
     28 C15         3.3294  -10.9344    0.2863 C.3       1 <0>        -0.7668
     29 O5          1.7873  -11.7265   -1.8545 O.3       1 <0>        -1.0863
     30 O6          1.0269   -7.0582   -0.3031 O.3       1 <0>        -0.3314
     31 C16         1.5234   -5.7249   -0.4366 C.3       1 <0>         0.0228
     32 H4          1.0039    1.9031    0.0027 H         1 <0>         0.0622
     33 H5         -0.5459    1.8868   -0.8726 H         1 <0>         0.0569
     34 H6         -0.5289    1.8773    0.9072 H         1 <0>         0.0628
     35 H7          0.5123   -0.3556   -0.8948 H         1 <0>         0.0670
     36 H8          0.5293   -0.3651    0.8851 H         1 <0>         0.0797
     37 H9         -1.9435   -0.1821    0.9097 H         1 <0>         0.1253
     38 H10        -1.9605   -0.1726   -0.8702 H         1 <0>         0.1027
     39 H11        -1.4226   -2.1006   -2.0964 H         1 <0>         0.2226
     40 H12        -1.3313   -7.1829    1.9823 H         1 <0>         0.2307
     41 H13         0.3330   -6.9311   -2.2593 H         1 <0>         0.1013
     42 H14        -0.7878  -11.4848   -1.0442 H         1 <0>         0.0925
     43 H15        -0.8261  -10.6342    0.5190 H         1 <0>         0.0694
     44 H16        -2.3063  -12.3604    1.4219 H         1 <0>         0.0391
     45 H17        -3.8241  -12.7014    0.5568 H         1 <0>         0.0820
     46 H18        -2.2680  -13.2110   -0.1412 H         1 <0>         0.0452
     47 H19         2.7337  -11.5260    0.9814 H         1 <0>         0.0652
     48 H20         4.1778  -11.5251   -0.0591 H         1 <0>         0.0814
     49 H21         3.6916  -10.0381    0.7898 H         1 <0>         0.0674
     50 H22         2.0376   -5.6227   -1.3923 H         1 <0>         0.0503
     51 H23         0.6918   -5.0216   -0.3944 H         1 <0>         0.0305
     52 H24         2.2196   -5.5135    0.3750 H         1 <0>         0.0860
@<TRIPOS>BOND
     1    1    2 1
     2    1   32 1
     3    1   33 1
     4    1   34 1
     5    2    3 1
     6    2   35 1
     7    2   36 1
     8    3    4 1
     9    3   37 1
    10    3   38 1
    11    4    9 1
    12    4    5 1
    13    5    6 2
    14    5   39 1
    15    6    7 1
    16    7   13 1
    17    7    8 2
    18    8    9 1
    19    8   11 1
    20    9   10 2
    21   11   12 2
    22   12   13 1
    23   12   40 1
    24   13   14 1
    25   14   15 1
    26   14   21 1
    27   14   16 1
    28   16   17 1
    29   16   30 1
    30   16   41 1
    31   17   18 1
    32   17   19 1
    33   17   25 1
    34   19   20 1
    35   19   21 1
    36   19   22 1
    37   22   23 1
    38   22   42 1
    39   22   43 1
    40   23   24 1
    41   24   44 1
    42   24   45 1
    43   24   46 1
    44   25   26 1
    45   26   27 2
    46   26   28 1
    47   26   29 1
    48   28   47 1
    49   28   48 1
    50   28   49 1
    51   30   31 1
    52   31   50 1
    53   31   51 1
    54   31   52 1
@<TRIPOS>MOLECULE
CHEMBL1160249__2
   52    54     0     0     0
SMALL
USER_CHARGES

@<TRIPOS>ATOM
      1 C1         -0.0187    1.5258    0.0104 C.3       1 <0>        -0.1459
      2 C2          0.0021   -0.0041    0.0020 C.3       1 <0>        -0.1378
      3 C3         -1.4333   -0.5336    0.0129 C.3       1 <0>         0.0794
      4 N1         -1.4134   -1.9985    0.0048 N.pl3     1 <0>        -0.4657
      5 C4         -1.4099   -2.6664   -1.1765 C.2       1 <0>         0.3565
      6 N2         -1.3921   -3.9684   -1.2375 N.2       1 <0>        -0.4794
      7 C5         -1.3762   -4.7162   -0.1245 C.2       1 <0>         0.2600
      8 C6         -1.3788   -4.0919    1.1269 C.2       1 <0>        -0.0189
      9 C7         -1.3931   -2.6764    1.1740 C.2       1 <0>         0.3584
     10 S1         -1.3909   -1.8466    2.6715 S.2       1 <0>        -0.5411
     11 N3         -1.3607   -5.0681    2.0635 N.2       1 <0>        -0.4277
     12 C8         -1.3474   -6.2297    1.4749 C.2       1 <0>         0.2739
     13 N4         -1.3563   -6.0617    0.1226 N.pl3     1 <0>        -0.4425
     14 C9         -1.3468   -7.1272   -0.8829 C.3       1 <0>         0.2746
     15 H1         -1.9517   -6.8413   -1.7434 H         1 <0>         0.1252
     16 C10         0.1009   -7.4385   -1.3229 C.3       1 <0>         0.0382
     17 C11         0.1121   -8.9708   -1.5203 C.3       1 <0>         0.1472
     18 H2          0.3496   -9.2210   -2.5542 H         1 <0>         0.1100
     19 C12        -1.3302   -9.4041   -1.1762 C.3       1 <0>         0.0815
     20 H3         -1.9331   -9.4694   -2.0819 H         1 <0>         0.1051
     21 O1         -1.8350   -8.3610   -0.3126 O.3       1 <0>        -0.3503
     22 C13        -1.3225  -10.7480   -0.4448 C.3       1 <0>         0.0663
     23 O2         -2.6670  -11.1862   -0.2393 O.3       1 <0>        -0.3923
     24 C14        -2.7726  -12.4391    0.4398 C.3       1 <0>         0.0327
     25 O3          1.0476   -9.5835   -0.6306 O.3       1 <0>        -0.7433
     26 P1          2.3008  -10.4560   -1.1408 P.3       1 <0>         2.2502
     27 O4          3.1451   -9.6174   -2.1261 O.2       1 <0>        -1.0811
     28 C15         3.3294  -10.9344    0.2863 C.3       1 <0>        -0.7679
     29 O5          1.7873  -11.7265   -1.8545 O.3       1 <0>        -1.0792
     30 O6          0.4051   -6.7733   -2.5505 O.3       1 <0>        -0.3531
     31 C16         0.9853   -5.4783   -2.3817 C.3       1 <0>         0.0192
     32 H4          1.0039    1.9031    0.0027 H         1 <0>         0.0624
     33 H5         -0.5459    1.8868   -0.8726 H         1 <0>         0.0572
     34 H6         -0.5289    1.8773    0.9072 H         1 <0>         0.0628
     35 H7          0.5123   -0.3556   -0.8948 H         1 <0>         0.0675
     36 H8          0.5293   -0.3651    0.8851 H         1 <0>         0.0796
     37 H9         -1.9435   -0.1821    0.9097 H         1 <0>         0.1256
     38 H10        -1.9605   -0.1726   -0.8702 H         1 <0>         0.1036
     39 H11        -1.4226   -2.1006   -2.0964 H         1 <0>         0.2241
     40 H12        -1.3313   -7.1829    1.9823 H         1 <0>         0.2337
     41 H13         0.8073   -7.1484   -0.5450 H         1 <0>         0.0969
     42 H14        -0.7878  -11.4848   -1.0442 H         1 <0>         0.0942
     43 H15        -0.8261  -10.6342    0.5190 H         1 <0>         0.0682
     44 H16        -2.3063  -12.3604    1.4219 H         1 <0>         0.0390
     45 H17        -3.8241  -12.7014    0.5568 H         1 <0>         0.0826
     46 H18        -2.2680  -13.2110   -0.1412 H         1 <0>         0.0457
     47 H19         2.7337  -11.5260    0.9814 H         1 <0>         0.0666
     48 H20         4.1778  -11.5251   -0.0591 H         1 <0>         0.0842
     49 H21         3.6916  -10.0381    0.7898 H         1 <0>         0.0658
     50 H22         0.2939   -4.8393   -1.8323 H         1 <0>         0.0547
     51 H23         1.9179   -5.5678   -1.8247 H         1 <0>         0.0416
     52 H24         1.1865   -5.0400   -3.3592 H         1 <0>         0.0921
@<TRIPOS>BOND
     1    1    2 1
     2    1   32 1
     3    1   33 1
     4    1   34 1
     5    2    3 1
     6    2   35 1
     7    2   36 1
     8    3    4 1
     9    3   37 1
    10    3   38 1
    11    4    9 1
    12    4    5 1
    13    5    6 2
    14    5   39 1
    15    6    7 1
    16    7   13 1
    17    7    8 2
    18    8    9 1
    19    8   11 1
    20    9   10 2
    21   11   12 2
    22   12   13 1
    23   12   40 1
    24   13   14 1
    25   14   15 1
    26   14   21 1
    27   14   16 1
    28   16   17 1
    29   16   30 1
    30   16   41 1
    31   17   18 1
    32   17   19 1
    33   17   25 1
    34   19   20 1
    35   19   21 1
    36   19   22 1
    37   22   23 1
    38   22   42 1
    39   22   43 1
    40   23   24 1
    41   24   44 1
    42   24   45 1
    43   24   46 1
    44   25   26 1
    45   26   27 2
    46   26   28 1
    47   26   29 1
    48   28   47 1
    49   28   48 1
    50   28   49 1
    51   30   31 1
    52   31   50 1
    53   31   51 1
    54   31   52 1
@<TRIPOS>MOLECULE
CHEMBL1160249__3
   52    54     0     0     0
SMALL
USER_CHARGES

@<TRIPOS>ATOM
      1 C1         -0.0187    1.5258    0.0104 C.3       1 <0>        -0.1459
      2 C2          0.0021   -0.0041    0.0020 C.3       1 <0>        -0.1378
      3 C3         -1.4333   -0.5336    0.0129 C.3       1 <0>         0.0794
      4 N1         -1.4134   -1.9985    0.0048 N.pl3     1 <0>        -0.4657
      5 C4         -1.4099   -2.6664   -1.1765 C.2       1 <0>         0.3565
      6 N2         -1.3921   -3.9684   -1.2375 N.2       1 <0>        -0.4794
      7 C5         -1.3762   -4.7162   -0.1245 C.2       1 <0>         0.2600
      8 C6         -1.3788   -4.0919    1.1269 C.2       1 <0>        -0.0189
      9 C7         -1.3931   -2.6764    1.1740 C.2       1 <0>         0.3584
     10 S1         -1.3909   -1.8466    2.6715 S.2       1 <0>        -0.5411
     11 N3         -1.3607   -5.0681    2.0635 N.2       1 <0>        -0.4277
     12 C8         -1.3474   -6.2297    1.4749 C.2       1 <0>         0.2739
     13 N4         -1.3563   -6.0617    0.1226 N.pl3     1 <0>        -0.4425
     14 C9         -1.3468   -7.1272   -0.8829 C.3       1 <0>         0.2746
     15 H1         -1.9517   -6.8413   -1.7434 H         1 <0>         0.1252
     16 C10         0.1009   -7.4385   -1.3229 C.3       1 <0>         0.0382
     17 C11         0.1121   -8.9708   -1.5203 C.3       1 <0>         0.1472
     18 H2          0.3496   -9.2210   -2.5542 H         1 <0>         0.1100
     19 C12        -1.3302   -9.4041   -1.1762 C.3       1 <0>         0.0815
     20 H3         -1.9331   -9.4694   -2.0819 H         1 <0>         0.1051
     21 O1         -1.8350   -8.3610   -0.3126 O.3       1 <0>        -0.3503
     22 C13        -1.3225  -10.7480   -0.4448 C.3       1 <0>         0.0663
     23 O2         -2.6670  -11.1862   -0.2393 O.3       1 <0>        -0.3923
     24 C14        -2.7726  -12.4391    0.4398 C.3       1 <0>         0.0327
     25 O3          1.0476   -9.5835   -0.6306 O.3       1 <0>        -0.7433
     26 P1          2.3008  -10.4560   -1.1408 P.3       1 <0>         2.2502
     27 O4          3.1451   -9.6174   -2.1261 O.2       1 <0>        -1.0811
     28 C15         3.3294  -10.9344    0.2863 C.3       1 <0>        -0.7679
     29 O5          1.7873  -11.7265   -1.8545 O.3       1 <0>        -1.0792
     30 O6          0.4051   -6.7733   -2.5505 O.3       1 <0>        -0.3531
     31 C16         0.9853   -5.4783   -2.3817 C.3       1 <0>         0.0192
     32 H4          1.0039    1.9031    0.0027 H         1 <0>         0.0624
     33 H5         -0.5459    1.8868   -0.8726 H         1 <0>         0.0572
     34 H6         -0.5289    1.8773    0.9072 H         1 <0>         0.0628
     35 H7          0.5123   -0.3556   -0.8948 H         1 <0>         0.0675
     36 H8          0.5293   -0.3651    0.8851 H         1 <0>         0.0796
     37 H9         -1.9435   -0.1821    0.9097 H         1 <0>         0.1256
     38 H10        -1.9605   -0.1726   -0.8702 H         1 <0>         0.1036
     39 H11        -1.4226   -2.1006   -2.0964 H         1 <0>         0.2241
     40 H12        -1.3313   -7.1829    1.9823 H         1 <0>         0.2337
     41 H13         0.8073   -7.1484   -0.5450 H         1 <0>         0.0969
     42 H14        -0.7878  -11.4848   -1.0442 H         1 <0>         0.0942
     43 H15        -0.8261  -10.6342    0.5190 H         1 <0>         0.0682
     44 H16        -2.3063  -12.3604    1.4219 H         1 <0>         0.0390
     45 H17        -3.8241  -12.7014    0.5568 H         1 <0>         0.0826
     46 H18        -2.2680  -13.2110   -0.1412 H         1 <0>         0.0457
     47 H19         2.7337  -11.5260    0.9814 H         1 <0>         0.0666
     48 H20         4.1778  -11.5251   -0.0591 H         1 <0>         0.0842
     49 H21         3.6916  -10.0381    0.7898 H         1 <0>         0.0658
     50 H22         0.2939   -4.8393   -1.8323 H         1 <0>         0.0547
     51 H23         1.9179   -5.5678   -1.8247 H         1 <0>         0.0416
     52 H24         1.1865   -5.0400   -3.3592 H         1 <0>         0.0921
@<TRIPOS>BOND
     1    1    2 1
     2    1   32 1
     3    1   33 1
     4    1   34 1
     5    2    3 1
     6    2   35 1
     7    2   36 1
     8    3    4 1
     9    3   37 1
    10    3   38 1
    11    4    9 1
    12    4    5 1
    13    5    6 2
    14    5   39 1
    15    6    7 1
    16    7   13 1
    17    7    8 2
    18    8    9 1
    19    8   11 1
    20    9   10 2
    21   11   12 2
    22   12   13 1
    23   12   40 1
    24   13   14 1
    25   14   15 1
    26   14   21 1
    27   14   16 1
    28   16   17 1
    29   16   30 1
    30   16   41 1
    31   17   18 1
    32   17   19 1
    33   17   25 1
    34   19   20 1
    35   19   21 1
    36   19   22 1
    37   22   23 1
    38   22   42 1
    39   22   43 1
    40   23   24 1
    41   24   44 1
    42   24   45 1
    43   24   46 1
    44   25   26 1
    45   26   27 2
    46   26   28 1
    47   26   29 1
    48   28   47 1
    49   28   48 1
    50   28   49 1
    51   30   31 1
    52   31   50 1
    53   31   51 1
    54   31   52 1
@<TRIPOS>MOLECULE
CHEMBL362936
   58    62     0     0     0
SMALL
USER_CHARGES

@<TRIPOS>ATOM
      1 C1         -0.1110    1.6074    0.0339 C.3       1 <0>        -0.1707
      2 C2         -0.0875    0.0776    0.0448 C.3       1 <0>         0.1383
      3 N1         -1.4610   -0.4320    0.0415 N.pl3     1 <0>        -0.5792
      4 C3         -2.1300   -0.6633    1.2433 C.ar      1 <0>         0.3614
      5 C4         -3.3046    0.0219    1.5464 C.ar      1 <0>         0.0922
      6 C5         -3.9728   -0.2798    2.7285 C.ar      1 <0>        -0.0861
      7 C6         -3.4252   -1.2311    3.5780 C.ar      1 <0>        -0.1550
      8 C7         -2.2409   -1.8460    3.2278 C.ar      1 <0>         0.1101
      9 N2         -1.6357   -1.5532    2.0924 N.ar      1 <0>        -0.4742
     10 N3         -3.7976    1.0342    0.7272 N.am      1 <0>        -0.5383
     11 C8         -3.8175    1.0460   -0.5975 C.2       1 <0>         0.5763
     12 O1         -4.3089    2.0184   -1.1370 O.2       1 <0>        -0.5223
     13 C9         -3.2975   -0.0122   -1.4689 C.ar      1 <0>        -0.1966
     14 C10        -2.1111   -0.6837   -1.1546 C.ar      1 <0>         0.4111
     15 N4         -1.6153   -1.5779   -1.9976 N.ar      1 <0>        -0.4955
     16 C11        -2.2337   -1.8957   -3.1181 C.ar      1 <0>         0.1610
     17 C12        -3.4350   -1.3054   -3.4656 C.ar      1 <0>        -0.1497
     18 C13        -3.9810   -0.3554   -2.6406 C.ar      1 <0>         0.0039
     19 C14        -4.1396   -1.7064   -4.7360 C.3       1 <0>        -0.0709
     20 C15        -5.0908   -2.8692   -4.4464 C.3       1 <0>         0.0634
     21 O2         -5.7589   -3.2494   -5.6510 O.3       1 <0>        -0.3111
     22 C16        -6.6430   -4.2726   -5.5674 C.ar      1 <0>         0.1232
     23 C17        -6.8642   -4.8897   -4.3528 C.ar      1 <0>        -0.2162
     24 C18        -7.7579   -5.9369   -4.2233 C.ar      1 <0>        -0.0669
     25 C19        -8.4686   -6.4052   -5.3268 C.ar      1 <0>        -0.1425
     26 C20        -8.2534   -5.7690   -6.6270 C.ar      1 <0>        -0.0056
     27 C21        -7.3359   -4.6964   -6.7218 C.ar      1 <0>        -0.0719
     28 C22        -7.1278   -4.0786   -7.9648 C.ar      1 <0>        -0.1070
     29 C23        -7.8140   -4.5155   -9.0578 C.ar      1 <0>        -0.1297
     30 C24        -8.7209   -5.5671   -8.9607 C.ar      1 <0>        -0.1374
     31 C25        -8.9382   -6.1960   -7.7701 C.ar      1 <0>        -0.0930
     32 C26        -9.4153   -7.5165   -5.1876 C.2       1 <0>         0.5264
     33 O3         -9.5054   -8.1142   -4.1230 O.co2     1 <0>        -0.6839
     34 O4        -10.1155   -7.8466   -6.1361 O.co2     1 <0>        -0.6799
     35 C27        -4.3534    2.2102    1.4013 C.3       1 <0>         0.0659
     36 H1          0.9109    1.9865    0.0363 H         1 <0>         0.0710
     37 H2         -0.6259    1.9565   -0.8611 H         1 <0>         0.0542
     38 H3         -0.6348    1.9690    0.9188 H         1 <0>         0.0532
     39 H4          0.4363   -0.2840   -0.8401 H         1 <0>         0.0834
     40 H5          0.4274   -0.2715    0.9398 H         1 <0>         0.0830
     41 H6         -4.8986    0.2162    2.9803 H         1 <0>         0.1471
     42 H7         -3.9205   -1.4868    4.5030 H         1 <0>         0.1471
     43 H8         -1.8030   -2.5764    3.8920 H         1 <0>         0.1662
     44 H9         -1.7938   -2.6300   -3.7766 H         1 <0>         0.1694
     45 H10        -4.9155    0.1219   -2.8959 H         1 <0>         0.1491
     46 H11        -4.7078   -0.8589   -5.1194 H         1 <0>         0.0905
     47 H12        -3.4032   -2.0155   -5.4778 H         1 <0>         0.0929
     48 H13        -4.5226   -3.7167   -4.0630 H         1 <0>         0.0645
     49 H14        -5.8272   -2.5601   -3.7046 H         1 <0>         0.0621
     50 H15        -6.3256   -4.5464   -3.4819 H         1 <0>         0.1177
     51 H16        -7.9064   -6.3967   -3.2574 H         1 <0>         0.1295
     52 H17        -6.4277   -3.2612   -8.0543 H         1 <0>         0.1219
     53 H18        -7.6523   -4.0387  -10.0133 H         1 <0>         0.1133
     54 H19        -9.2530   -5.8949   -9.8414 H         1 <0>         0.1165
     55 H20        -9.6435   -7.0115   -7.7076 H         1 <0>         0.1784
     56 H21        -3.5643    2.9455    1.5588 H         1 <0>         0.0664
     57 H22        -5.1382    2.6463    0.7831 H         1 <0>         0.0935
     58 H23        -4.7712    1.9138    2.3634 H         1 <0>         0.0795
@<TRIPOS>BOND
     1    1    2 1
     2    1   36 1
     3    1   37 1
     4    1   38 1
     5    2    3 1
     6    2   39 1
     7    2   40 1
     8    3   14 1
     9    3    4 1
    10    4    9 ar
    11    4    5 ar
    12    5    6 ar
    13    5   10 1
    14    6    7 ar
    15    6   41 1
    16    7    8 ar
    17    7   42 1
    18    8    9 ar
    19    8   43 1
    20   10   11 am
    21   10   35 1
    22   11   12 2
    23   11   13 1
    24   13   18 ar
    25   13   14 ar
    26   14   15 ar
    27   15   16 ar
    28   16   17 ar
    29   16   44 1
    30   17   18 ar
    31   17   19 1
    32   18   45 1
    33   19   20 1
    34   19   46 1
    35   19   47 1
    36   20   21 1
    37   20   48 1
    38   20   49 1
    39   21   22 1
    40   22   27 ar
    41   22   23 ar
    42   23   24 ar
    43   23   50 1
    44   24   25 ar
    45   24   51 1
    46   25   26 ar
    47   25   32 1
    48   26   31 ar
    49   26   27 ar
    50   27   28 ar
    51   28   29 ar
    52   28   52 1
    53   29   30 ar
    54   29   53 1
    55   30   31 ar
    56   30   54 1
    57   31   55 1
    58   32   33 2
    59   32   34 1
    60   35   56 1
    61   35   57 1
    62   35   58 1
@<TRIPOS>MOLECULE
CHEMBL135532
   48    50     0     0     0
SMALL
USER_CHARGES

@<TRIPOS>ATOM
      1 C1         -0.4892    0.6036   -0.5956 C.3       1 <0>        -0.1446
      2 C2         -0.0156   -0.8288   -0.8505 C.3       1 <0>        -0.0652
      3 C3          1.0096   -0.8298   -1.9550 C.2       1 <0>        -0.1802
      4 C4          0.6077   -0.8650   -3.2990 C.2       1 <0>         0.5547
      5 O1         -0.5774   -0.8945   -3.5840 O.2       1 <0>        -0.4964
      6 N1          1.5390   -0.8654   -4.2728 N.am      1 <0>        -0.6560
      7 H1          1.2625   -0.8897   -5.2023 H         1 <0>         0.4339
      8 C5          2.8489   -0.8320   -3.9677 C.2       1 <0>         0.6975
      9 O2          3.6723   -0.8327   -4.8624 O.2       1 <0>        -0.5306
     10 N2          3.2616   -0.7975   -2.6873 N.am      1 <0>        -0.5197
     11 C6          2.3453   -0.7909   -1.6618 C.2       1 <0>         0.1278
     12 S1          2.8867   -0.7388    0.0142 S.3       1 <0>         0.0716
     13 C7          3.6452   -2.3091    0.2661 C.ar      1 <0>        -0.1235
     14 C8          3.5833   -3.2794   -0.7263 C.ar      1 <0>        -0.1197
     15 C9          4.1789   -4.5091   -0.5256 C.ar      1 <0>        -0.0988
     16 C10         4.8363   -4.7752    0.6617 C.ar      1 <0>        -0.1096
     17 C11         4.8994   -3.8117    1.6518 C.ar      1 <0>        -0.0992
     18 C12         4.3114   -2.5778    1.4552 C.ar      1 <0>        -0.0868
     19 C13         4.6945   -0.7611   -2.3843 C.3       1 <0>         0.0997
     20 C14         5.1654    0.6932   -2.3201 C.3       1 <0>        -0.1276
     21 C15         6.6520    0.7324   -1.9602 C.3       1 <0>        -0.0749
     22 C16         7.1272    2.1624   -1.9435 C.ar      1 <0>        -0.0831
     23 C17         7.6230    2.7395   -3.0976 C.ar      1 <0>        -0.1162
     24 C18         8.0589    4.0513   -3.0823 C.ar      1 <0>        -0.1181
     25 C19         7.9986    4.7861   -1.9130 C.ar      1 <0>        -0.1233
     26 C20         7.5019    4.2092   -0.7591 C.ar      1 <0>        -0.1185
     27 C21         7.0620    2.8988   -0.7754 C.ar      1 <0>        -0.1158
     28 H2          0.3605    1.2206   -0.3033 H         1 <0>         0.0539
     29 H3         -0.9347    1.0063   -1.5053 H         1 <0>         0.0579
     30 H4         -1.2308    0.6044    0.2032 H         1 <0>         0.0676
     31 H5          0.4299   -1.2314    0.0592 H         1 <0>         0.0929
     32 H6         -0.8653   -1.4458   -1.1428 H         1 <0>         0.0876
     33 H7          3.0698   -3.0724   -1.6536 H         1 <0>         0.1164
     34 H8          4.1308   -5.2639   -1.2965 H         1 <0>         0.1288
     35 H9          5.3012   -5.7377    0.8161 H         1 <0>         0.1300
     36 H10         5.4130   -4.0231    2.5781 H         1 <0>         0.1337
     37 H11         4.3655   -1.8240    2.2268 H         1 <0>         0.1332
     38 H12         4.8752   -1.2443   -1.4241 H         1 <0>         0.1003
     39 H13         5.2444   -1.2870   -3.1649 H         1 <0>         0.1067
     40 H14         5.0137    1.1674   -3.2897 H         1 <0>         0.0745
     41 H15         4.5936    1.2271   -1.5611 H         1 <0>         0.0759
     42 H16         6.7992    0.2891   -0.9753 H         1 <0>         0.0776
     43 H17         7.2201    0.1694   -2.7007 H         1 <0>         0.0770
     44 H18         7.6701    2.1655   -4.0112 H         1 <0>         0.1213
     45 H19         8.4469    4.5019   -3.9839 H         1 <0>         0.1217
     46 H20         8.3398    5.8107   -1.9009 H         1 <0>         0.1212
     47 H21         7.4551    4.7832    0.1546 H         1 <0>         0.1220
     48 H22         6.6706    2.4494    0.1252 H         1 <0>         0.1221
@<TRIPOS>BOND
     1    1    2 1
     2    1   28 1
     3    1   29 1
     4    1   30 1
     5    2    3 1
     6    2   31 1
     7    2   32 1
     8    3   11 2
     9    3    4 1
    10    4    5 2
    11    4    6 am
    12    6    7 1
    13    6    8 am
    14    8    9 2
    15    8   10 am
    16   10   11 1
    17   10   19 1
    18   11   12 1
    19   12   13 1
    20   13   18 ar
    21   13   14 ar
    22   14   15 ar
    23   14   33 1
    24   15   16 ar
    25   15   34 1
    26   16   17 ar
    27   16   35 1
    28   17   18 ar
    29   17   36 1
    30   18   37 1
    31   19   20 1
    32   19   38 1
    33   19   39 1
    34   20   21 1
    35   20   40 1
    36   20   41 1
    37   21   22 1
    38   21   42 1
    39   21   43 1
    40   22   27 ar
    41   22   23 ar
    42   23   24 ar
    43   23   44 1
    44   24   25 ar
    45   24   45 1
    46   25   26 ar
    47   25   46 1
    48   26   27 ar
    49   26   47 1
    50   27   48 1
@<TRIPOS>MOLECULE
CHEMBL306904
   42    44     0     0     0
SMALL
USER_CHARGES

@<TRIPOS>ATOM
      1 C1         -0.2227    2.0990    1.4771 C.3       1 <0>        -0.1865
      2 C2         -0.3640    0.5970    1.2222 C.3       1 <0>        -0.0036
      3 C3         -1.7995    0.2027    1.4479 C.3       1 <0>         0.1078
      4 N1         -2.3174    0.8144    2.6653 N.pl3     1 <0>        -0.5022
      5 C4         -1.6258    0.6865    3.9000 C.ar      1 <0>         0.0816
      6 C5         -2.6143    0.8987    4.8688 C.ar      1 <0>         0.1071
      7 C6         -2.3117    0.7326    6.2112 C.ar      1 <0>        -0.0634
      8 C7         -1.0060    0.4690    6.5786 C.ar      1 <0>        -0.0708
      9 C8         -0.0128    0.4074    5.6212 C.ar      1 <0>        -0.0165
     10 C9         -0.3172    0.5518    4.2652 C.ar      1 <0>        -0.0962
     11 C10         0.8673    0.5468    3.3250 C.3       1 <0>         0.0250
     12 N2          0.5587   -0.0994    2.0649 N.4       1 <0>        -0.3661
     13 C11         1.8129   -0.2817    1.3220 C.3       1 <0>         0.0225
     14 C12         2.7629   -1.1197    2.1382 C.2       1 <0>        -0.2685
     15 C13         3.9591   -0.6665    2.4207 C.2       1 <0>        -0.0269
     16 C14         4.4367    0.6282    1.8150 C.3       1 <0>        -0.1530
     17 C15         4.8575   -1.4396    3.3514 C.3       1 <0>        -0.1411
     18 Cl1         1.6332    0.1482    6.1081 Cl        1 <0>        -0.0230
     19 N3         -3.7463    1.3737    4.2081 N.pl3     1 <0>        -0.5826
     20 H1         -4.5922    1.6045    4.6229 H         1 <0>         0.4571
     21 C16        -3.4619    1.4564    2.8923 C.2       1 <0>         0.5194
     22 S1         -4.4125    2.2529    1.7121 S.2       1 <0>        -0.5048
     23 H2          0.7962    2.4120    1.2490 H         1 <0>         0.0878
     24 H3         -0.9209    2.6428    0.8408 H         1 <0>         0.1143
     25 H4         -0.4427    2.3122    2.5232 H         1 <0>         0.0810
     26 H5         -0.1079    0.3948    0.1822 H         1 <0>         0.1691
     27 H6         -2.3993    0.5298    0.5986 H         1 <0>         0.1594
     28 H7         -1.8642   -0.8819    1.5356 H         1 <0>         0.1114
     29 H8         -3.0861    0.8085    6.9601 H         1 <0>         0.1630
     30 H9         -0.7612    0.3109    7.6185 H         1 <0>         0.1656
     31 H10         1.1697    1.5758    3.1306 H         1 <0>         0.1494
     32 H11         1.6946    0.0198    3.8002 H         1 <0>         0.1579
     33 H12         1.6057   -0.7837    0.3769 H         1 <0>         0.1420
     34 H13         2.2635    0.6912    1.1256 H         1 <0>         0.1366
     35 H14         2.4576   -2.0940    2.4902 H         1 <0>         0.1386
     36 H15         4.0905    1.4636    2.4236 H         1 <0>         0.0831
     37 H16         5.5261    0.6321    1.7785 H         1 <0>         0.0872
     38 H17         4.0390    0.7252    0.8048 H         1 <0>         0.0753
     39 H18         5.0425   -2.4309    2.9376 H         1 <0>         0.0849
     40 H19         5.8039   -0.9110    3.4652 H         1 <0>         0.0781
     41 H20         4.3759   -1.5362    4.3244 H         1 <0>         0.0810
     42 H21         0.1785   -1.0128    2.2629 H         1 <0>         0.4190
@<TRIPOS>BOND
     1    1    2 1
     2    1   23 1
     3    1   24 1
     4    1   25 1
     5    2   12 1
     6    2    3 1
     7    2   26 1
     8    3    4 1
     9    3   27 1
    10    3   28 1
    11    4   21 1
    12    4    5 1
    13    5   10 ar
    14    5    6 ar
    15    6    7 ar
    16    6   19 1
    17    7    8 ar
    18    7   29 1
    19    8    9 ar
    20    8   30 1
    21    9   10 ar
    22    9   18 1
    23   10   11 1
    24   11   12 1
    25   11   31 1
    26   11   32 1
    27   12   13 1
    28   12   42 1
    29   13   14 1
    30   13   33 1
    31   13   34 1
    32   14   15 2
    33   14   35 1
    34   15   16 1
    35   15   17 1
    36   16   36 1
    37   16   37 1
    38   16   38 1
    39   17   39 1
    40   17   40 1
    41   17   41 1
    42   19   20 1
    43   19   21 1
    44   21   22 2
@<TRIPOS>MOLECULE
CHEMBL306904__1
   41    43     0     0     0
SMALL
USER_CHARGES

@<TRIPOS>ATOM
      1 C1         -0.9755    0.9659    0.9338 C.3       1 <0>        -0.1826
      2 C2         -0.8013   -0.5507    1.0365 C.3       1 <0>         0.0112
      3 C3         -2.1422   -1.1624    1.3879 C.3       1 <0>         0.1143
      4 N1         -1.9888   -2.5993    1.6234 N.pl3     1 <0>        -0.5153
      5 C4         -1.2813   -3.0710    2.7234 C.ar      1 <0>         0.0076
      6 C5         -1.4474   -4.4566    2.7545 C.ar      1 <0>         0.1125
      7 C6         -0.9074   -5.1451    3.8442 C.ar      1 <0>        -0.0555
      8 C7         -0.2558   -4.4389    4.8347 C.ar      1 <0>        -0.1095
      9 C8         -0.0763   -3.0618    4.7569 C.ar      1 <0>        -0.0284
     10 C9         -0.5540   -2.3773    3.6548 C.ar      1 <0>        -0.1236
     11 C10        -0.1523   -0.9392    3.3951 C.3       1 <0>         0.0464
     12 N2          0.2799   -0.8290    1.9926 N.4       1 <0>        -0.3767
     13 C11         1.2740    0.2482    1.8961 C.3       1 <0>         0.0194
     14 C12         2.4527   -0.0757    2.7775 C.2       1 <0>        -0.2463
     15 C13         2.8377    0.7758    3.6955 C.2       1 <0>        -0.0465
     16 C14         2.1940    2.1358    3.7792 C.3       1 <0>        -0.1470
     17 C15         3.9243    0.3953    4.6680 C.3       1 <0>        -0.1337
     18 Cl1         0.7407   -2.2110    6.0307 Cl        1 <0>        -0.0631
     19 N3         -2.1359   -4.7812    1.6302 N.2       1 <0>        -0.5258
     20 C16        -2.4442   -3.6864    0.9599 C.2       1 <0>         0.4798
     21 S1         -3.3174   -3.6473   -0.5700 S.3       1 <0>        -0.7489
     22 H1         -0.0453    1.4158    0.5866 H         1 <0>         0.0886
     23 H2         -1.7745    1.1930    0.2280 H         1 <0>         0.1086
     24 H3         -1.2307    1.3695    1.9136 H         1 <0>         0.0804
     25 H4         -0.5006   -0.9272    0.0588 H         1 <0>         0.1416
     26 H5         -2.5318   -0.6876    2.2884 H         1 <0>         0.0943
     27 H6         -2.8395   -1.0028    0.5656 H         1 <0>         0.1455
     28 H7         -0.9989   -6.2191    3.9103 H         1 <0>         0.1427
     29 H8          0.1251   -4.9703    5.6943 H         1 <0>         0.1396
     30 H9         -1.0041   -0.2821    3.5701 H         1 <0>         0.1291
     31 H10         0.6689   -0.6617    4.0559 H         1 <0>         0.1455
     32 H11         1.6080    0.3429    0.8629 H         1 <0>         0.1330
     33 H12         0.8251    1.1871    2.2204 H         1 <0>         0.1364
     34 H13         2.9801   -1.0098    2.6522 H         1 <0>         0.1349
     35 H14         1.2813    2.0700    4.3715 H         1 <0>         0.0805
     36 H15         2.8836    2.8358    4.2510 H         1 <0>         0.0819
     37 H16         1.9514    2.4854    2.7757 H         1 <0>         0.0730
     38 H17         4.2653   -0.6175    4.4537 H         1 <0>         0.0718
     39 H18         4.7596    1.0886    4.5689 H         1 <0>         0.0791
     40 H19         3.5338    0.4398    5.6847 H         1 <0>         0.0819
     41 H20         0.7257   -1.6944    1.7271 H         1 <0>         0.4231
@<TRIPOS>BOND
     1    1    2 1
     2    1   22 1
     3    1   23 1
     4    1   24 1
     5    2   12 1
     6    2    3 1
     7    2   25 1
     8    3    4 1
     9    3   26 1
    10    3   27 1
    11    4   20 1
    12    4    5 1
    13    5   10 ar
    14    5    6 ar
    15    6    7 ar
    16    6   19 1
    17    7    8 ar
    18    7   28 1
    19    8    9 ar
    20    8   29 1
    21    9   10 ar
    22    9   18 1
    23   10   11 1
    24   11   12 1
    25   11   30 1
    26   11   31 1
    27   12   13 1
    28   12   41 1
    29   13   14 1
    30   13   32 1
    31   13   33 1
    32   14   15 2
    33   14   34 1
    34   15   16 1
    35   15   17 1
    36   16   35 1
    37   16   36 1
    38   16   37 1
    39   17   38 1
    40   17   39 1
    41   17   40 1
    42   19   20 2
    43   20   21 1
@<TRIPOS>MOLECULE
CHEMBL306904__2
   42    44     0     0     0
SMALL
USER_CHARGES

@<TRIPOS>ATOM
      1 C1         -0.3718    0.0855   -0.1072 C.3       1 <0>        -0.1845
      2 C2         -0.1567   -1.3641    0.3323 C.3       1 <0>        -0.0028
      3 C3          0.4587   -2.1279   -0.8101 C.3       1 <0>         0.1080
      4 N1          0.3075   -3.5640   -0.6116 N.pl3     1 <0>        -0.5063
      5 C4          0.7142   -4.1819    0.6016 C.ar      1 <0>         0.0804
      6 C5          0.9238   -5.5209    0.2495 C.ar      1 <0>         0.1074
      7 C6          1.4463   -6.4053    1.1800 C.ar      1 <0>        -0.0630
      8 C7          1.6470   -5.9753    2.4778 C.ar      1 <0>        -0.0705
      9 C8          1.2977   -4.6915    2.8471 C.ar      1 <0>        -0.0163
     10 C9          0.7919   -3.7899    1.9071 C.ar      1 <0>        -0.0976
     11 C10         0.3708   -2.4438    2.4528 C.3       1 <0>         0.0326
     12 N2          0.6425   -1.3692    1.5188 N.4       1 <0>        -0.3658
     13 C11         0.4399   -0.0918    2.2154 C.3       1 <0>         0.0113
     14 C12         1.3619   -0.0168    3.4051 C.2       1 <0>        -0.2684
     15 C13         0.8721    0.1989    4.6008 C.2       1 <0>        -0.0283
     16 C14        -0.5925    0.5108    4.7701 C.3       1 <0>        -0.1526
     17 C15         1.7733    0.1352    5.8070 C.3       1 <0>        -0.1409
     18 Cl1         1.4886   -4.1920    4.4987 Cl        1 <0>        -0.0227
     19 N3          0.4141   -5.6954   -1.0363 N.pl3     1 <0>        -0.5821
     20 H1          0.4221   -6.5218   -1.5442 H         1 <0>         0.4573
     21 C16        -0.0929   -4.5167   -1.4516 C.2       1 <0>         0.5190
     22 S1         -1.0845   -4.2841   -2.8277 S.2       1 <0>        -0.5036
     23 H2          0.5929    0.5512   -0.3084 H         1 <0>         0.0921
     24 H3         -0.9801    0.1045   -1.0115 H         1 <0>         0.1141
     25 H4         -0.8816    0.6336    0.6851 H         1 <0>         0.0984
     26 H5         -1.1262   -1.8057    0.5627 H         1 <0>         0.1460
     27 H6         -0.0323   -1.8405   -1.7398 H         1 <0>         0.1599
     28 H7          1.5191   -1.8842   -0.8748 H         1 <0>         0.1116
     29 H8          1.6937   -7.4171    0.8944 H         1 <0>         0.1634
     30 H9          2.0784   -6.6461    3.2061 H         1 <0>         0.1660
     31 H10        -0.6980   -2.4663    2.6657 H         1 <0>         0.1444
     32 H11         0.9112   -2.2525    3.3798 H         1 <0>         0.1590
     33 H12         0.6570    0.7315    1.5350 H         1 <0>         0.1523
     34 H13        -0.5943   -0.0217    2.5523 H         1 <0>         0.1376
     35 H14         2.4265   -0.1408    3.2719 H         1 <0>         0.1381
     36 H15        -1.1586   -0.4193    4.8201 H         1 <0>         0.0829
     37 H16        -0.7397    1.0757    5.6906 H         1 <0>         0.0871
     38 H17        -0.9386    1.1016    3.9220 H         1 <0>         0.0750
     39 H18         2.5649    0.8780    5.7088 H         1 <0>         0.0847
     40 H19         1.1920    0.3403    6.7060 H         1 <0>         0.0780
     41 H20         2.2147   -0.8589    5.8786 H         1 <0>         0.0807
     42 H21         1.6124   -1.4250    1.2463 H         1 <0>         0.4180
@<TRIPOS>BOND
     1    1    2 1
     2    1   23 1
     3    1   24 1
     4    1   25 1
     5    2   12 1
     6    2    3 1
     7    2   26 1
     8    3    4 1
     9    3   27 1
    10    3   28 1
    11    4   21 1
    12    4    5 1
    13    5   10 ar
    14    5    6 ar
    15    6    7 ar
    16    6   19 1
    17    7    8 ar
    18    7   29 1
    19    8    9 ar
    20    8   30 1
    21    9   10 ar
    22    9   18 1
    23   10   11 1
    24   11   12 1
    25   11   31 1
    26   11   32 1
    27   12   13 1
    28   12   42 1
    29   13   14 1
    30   13   33 1
    31   13   34 1
    32   14   15 2
    33   14   35 1
    34   15   16 1
    35   15   17 1
    36   16   36 1
    37   16   37 1
    38   16   38 1
    39   17   39 1
    40   17   40 1
    41   17   41 1
    42   19   20 1
    43   19   21 1
    44   21   22 2
@<TRIPOS>MOLECULE
CHEMBL306904__3
   41    43     0     0     0
SMALL
USER_CHARGES

@<TRIPOS>ATOM
      1 C1          0.9577    0.4129   -0.5624 C.3       1 <0>        -0.1772
      2 C2          0.9185   -1.0704   -0.1892 C.3       1 <0>         0.0126
      3 C3          1.7522   -1.8378   -1.1949 C.3       1 <0>         0.1119
      4 N1          3.1674   -1.5001   -1.0313 N.pl3     1 <0>        -0.5116
      5 C4          3.8651   -1.8808    0.1095 C.ar      1 <0>         0.0082
      6 C5          5.2059   -1.5557   -0.1021 C.ar      1 <0>         0.1123
      7 C6          6.1245   -1.9448    0.8766 C.ar      1 <0>        -0.0560
      8 C7          5.6794   -2.6344    1.9859 C.ar      1 <0>        -0.1097
      9 C8          4.3309   -2.9117    2.1851 C.ar      1 <0>        -0.0287
     10 C9          3.4056   -2.4808    1.2525 C.ar      1 <0>        -0.1240
     11 C10         1.9204   -2.5195    1.5519 C.3       1 <0>         0.0467
     12 N2          1.3484   -1.2074    1.2098 N.4       1 <0>        -0.3783
     13 C11         0.1883   -0.9657    2.0780 C.3       1 <0>         0.0230
     14 C12         0.6281   -0.9791    3.5193 C.2       1 <0>        -0.2456
     15 C13         0.0530   -1.7903    4.3721 C.2       1 <0>        -0.0463
     16 C14        -1.1395   -2.6081    3.9475 C.3       1 <0>        -0.1469
     17 C15         0.5839   -1.9057    5.7778 C.3       1 <0>        -0.1337
     18 Cl1         3.8149   -3.7902    3.5907 Cl        1 <0>        -0.0633
     19 N3          5.2536   -0.8965   -1.2881 N.2       1 <0>        -0.5270
     20 C16         4.0497   -0.8554   -1.8284 C.2       1 <0>         0.4808
     21 S1          3.6520   -0.0772   -3.3584 S.3       1 <0>        -0.7480
     22 H1          1.9735    0.7903   -0.4455 H         1 <0>         0.0820
     23 H2          0.6416    0.5353   -1.5984 H         1 <0>         0.1147
     24 H3          0.2858    0.9698    0.0907 H         1 <0>         0.0758
     25 H4         -0.1125   -1.4154   -0.2670 H         1 <0>         0.1435
     26 H5          1.6149   -2.9077   -1.0376 H         1 <0>         0.0938
     27 H6          1.4323   -1.5777   -2.2039 H         1 <0>         0.1456
     28 H7          7.1724   -1.7078    0.7660 H         1 <0>         0.1424
     29 H8          6.3979   -2.9677    2.7201 H         1 <0>         0.1393
     30 H9          1.4445   -3.2957    0.9527 H         1 <0>         0.1299
     31 H10         1.7640   -2.7240    2.6111 H         1 <0>         0.1452
     32 H11        -0.2477    0.0046    1.8402 H         1 <0>         0.1328
     33 H12        -0.5546   -1.7470    1.9176 H         1 <0>         0.1312
     34 H13         1.4175   -0.3199    3.8492 H         1 <0>         0.1352
     35 H14        -0.7987   -3.5244    3.4656 H         1 <0>         0.0807
     36 H15        -1.7383   -2.8590    4.8231 H         1 <0>         0.0816
     37 H16        -1.7440   -2.0322    3.2468 H         1 <0>         0.0732
     38 H17         1.4419   -1.2442    5.8976 H         1 <0>         0.0718
     39 H18        -0.1954   -1.6218    6.4850 H         1 <0>         0.0791
     40 H19         0.8892   -2.9348    5.9675 H         1 <0>         0.0819
     41 H20         2.0396   -0.4979    1.4021 H         1 <0>         0.4212
@<TRIPOS>BOND
     1    1    2 1
     2    1   22 1
     3    1   23 1
     4    1   24 1
     5    2   12 1
     6    2    3 1
     7    2   25 1
     8    3    4 1
     9    3   26 1
    10    3   27 1
    11    4   20 1
    12    4    5 1
    13    5   10 ar
    14    5    6 ar
    15    6    7 ar
    16    6   19 1
    17    7    8 ar
    18    7   28 1
    19    8    9 ar
    20    8   29 1
    21    9   10 ar
    22    9   18 1
    23   10   11 1
    24   11   12 1
    25   11   30 1
    26   11   31 1
    27   12   13 1
    28   12   41 1
    29   13   14 1
    30   13   32 1
    31   13   33 1
    32   14   15 2
    33   14   34 1
    34   15   16 1
    35   15   17 1
    36   16   35 1
    37   16   36 1
    38   16   37 1
    39   17   38 1
    40   17   39 1
    41   17   40 1
    42   19   20 2
    43   20   21 1
@<TRIPOS>MOLECULE
CHEMBL54817
   52    54     0     0     0
SMALL
USER_CHARGES

@<TRIPOS>ATOM
      1 C1          0.0983    0.6211    0.3224 C.3       1 <0>        -0.1446
      2 C2         -0.2141   -0.8285   -0.0543 C.3       1 <0>        -0.0649
      3 C3         -1.6999   -0.9880   -0.2489 C.2       1 <0>        -0.1810
      4 C4         -2.5393   -1.2321    0.8488 C.2       1 <0>         0.5552
      5 O1         -2.0714   -1.3168    1.9715 O.2       1 <0>        -0.4964
      6 N1         -3.8654   -1.3719    0.6550 N.am      1 <0>        -0.6559
      7 H1         -4.4467   -1.5407    1.4130 H         1 <0>         0.4339
      8 C5         -4.3906   -1.2791   -0.5802 C.2       1 <0>         0.6978
      9 O2         -5.5900   -1.4081   -0.7320 O.2       1 <0>        -0.5303
     10 N2         -3.6085   -1.0452   -1.6500 N.am      1 <0>        -0.5166
     11 C6         -2.2504   -0.8912   -1.4976 C.2       1 <0>         0.1307
     12 S1         -1.2281   -0.5782   -2.8982 S.3       1 <0>         0.0743
     13 C7         -1.2937   -2.0798   -3.8178 C.ar      1 <0>        -0.1156
     14 C8         -1.9475   -3.1885   -3.2949 C.ar      1 <0>        -0.1284
     15 C9         -1.9969   -4.3638   -4.0182 C.ar      1 <0>        -0.0582
     16 C10        -1.3966   -4.4379   -5.2619 C.ar      1 <0>        -0.1132
     17 C11        -0.7446   -3.3362   -5.7853 C.ar      1 <0>        -0.0594
     18 C12        -0.6967   -2.1560   -5.0700 C.ar      1 <0>        -0.0955
     19 C13        -0.0911   -3.4220   -7.1405 C.3       1 <0>        -0.1182
     20 C14        -2.7054   -5.5671   -3.4516 C.3       1 <0>        -0.1197
     21 C15        -4.2076   -0.9485   -2.9834 C.3       1 <0>         0.1346
     22 C16        -4.6528    0.4696   -3.2324 C.2       1 <0>        -0.1759
     23 C17        -4.2279    1.1185   -4.3075 C.2       1 <0>        -0.0772
     24 C18        -4.5660    2.5457   -4.4909 C.ar      1 <0>        -0.0630
     25 C19        -5.3274    3.2143   -3.5316 C.ar      1 <0>        -0.1100
     26 C20        -5.6396    4.5465   -3.7088 C.ar      1 <0>        -0.1189
     27 C21        -5.1999    5.2192   -4.8348 C.ar      1 <0>        -0.1151
     28 C22        -4.4450    4.5620   -5.7899 C.ar      1 <0>        -0.1199
     29 C23        -4.1203    3.2317   -5.6213 C.ar      1 <0>        -0.1032
     30 H2          1.1730    0.7365    0.4632 H         1 <0>         0.0675
     31 H3         -0.2369    1.2841   -0.4752 H         1 <0>         0.0539
     32 H4         -0.4188    0.8756    1.2477 H         1 <0>         0.0579
     33 H5          0.3030   -1.0829   -0.9795 H         1 <0>         0.0928
     34 H6          0.1211   -1.4915    0.7434 H         1 <0>         0.0875
     35 H7         -2.4162   -3.1314   -2.3236 H         1 <0>         0.1167
     36 H8         -1.4368   -5.3582   -5.8256 H         1 <0>         0.1290
     37 H9         -0.1918   -1.2945   -5.4815 H         1 <0>         0.1323
     38 H10        -0.8087   -3.1345   -7.9088 H         1 <0>         0.0758
     39 H11         0.7660   -2.7493   -7.1738 H         1 <0>         0.0708
     40 H12         0.2423   -4.4443   -7.3191 H         1 <0>         0.0711
     41 H13        -3.7692   -5.5036   -3.6806 H         1 <0>         0.0750
     42 H14        -2.2921   -6.4736   -3.8936 H         1 <0>         0.0725
     43 H15        -2.5675   -5.5943   -2.3707 H         1 <0>         0.0676
     44 H16        -3.4714   -1.2354   -3.7342 H         1 <0>         0.1053
     45 H17        -5.0676   -1.6153   -3.0445 H         1 <0>         0.1130
     46 H18        -5.3179    0.9571   -2.5351 H         1 <0>         0.1222
     47 H19        -3.6347    0.6045   -5.0493 H         1 <0>         0.1242
     48 H20        -5.6719    2.6900   -2.6525 H         1 <0>         0.1223
     49 H21        -6.2289    5.0651   -2.9670 H         1 <0>         0.1236
     50 H22        -5.4473    6.2619   -4.9690 H         1 <0>         0.1232
     51 H23        -4.1054    5.0927   -6.6671 H         1 <0>         0.1249
     52 H24        -3.5266    2.7211   -6.3651 H         1 <0>         0.1255
@<TRIPOS>BOND
     1    1    2 1
     2    1   30 1
     3    1   31 1
     4    1   32 1
     5    2    3 1
     6    2   33 1
     7    2   34 1
     8    3   11 2
     9    3    4 1
    10    4    5 2
    11    4    6 am
    12    6    7 1
    13    6    8 am
    14    8    9 2
    15    8   10 am
    16   10   11 1
    17   10   21 1
    18   11   12 1
    19   12   13 1
    20   13   18 ar
    21   13   14 ar
    22   14   15 ar
    23   14   35 1
    24   15   16 ar
    25   15   20 1
    26   16   17 ar
    27   16   36 1
    28   17   18 ar
    29   17   19 1
    30   18   37 1
    31   19   38 1
    32   19   39 1
    33   19   40 1
    34   20   41 1
    35   20   42 1
    36   20   43 1
    37   21   22 1
    38   21   44 1
    39   21   45 1
    40   22   23 2
    41   22   46 1
    42   23   24 1
    43   23   47 1
    44   24   29 ar
    45   24   25 ar
    46   25   26 ar
    47   25   48 1
    48   26   27 ar
    49   26   49 1
    50   27   28 ar
    51   27   50 1
    52   28   29 ar
    53   28   51 1
    54   29   52 1
@<TRIPOS>MOLECULE
CHEMBL129
   32    33     0     0     0
SMALL
USER_CHARGES

@<TRIPOS>ATOM
      1 C1         -0.0184    1.5028    0.0103 C.3       1 <0>        -0.0871
      2 C2          0.0021   -0.0041    0.0020 C.2       1 <0>        -0.2505
      3 C3         -1.1526   -0.7039    0.0037 C.2       1 <0>         0.1638
      4 N1         -1.1160   -2.0718   -0.0039 N.am      1 <0>        -0.5289
      5 C4          0.0598   -2.7257   -0.0125 C.2       1 <0>         0.6982
      6 O1          0.0693   -3.9416   -0.0187 O.2       1 <0>        -0.5214
      7 N2          1.2256   -2.0531   -0.0148 N.am      1 <0>        -0.6592
      8 H1          2.0644   -2.5402   -0.0217 H         1 <0>         0.4323
      9 C5          1.2322   -0.7047   -0.0135 C.2       1 <0>         0.5527
     10 O2          2.2865   -0.0953   -0.0208 O.2       1 <0>        -0.5056
     11 C6         -2.3687   -2.8312   -0.0021 C.3       1 <0>         0.3096
     12 H2         -3.2193   -2.1584    0.1071 H         1 <0>         0.1252
     13 C7         -2.4992   -3.6565   -1.3014 C.3       1 <0>        -0.1823
     14 C8         -3.1605   -4.9757   -0.8435 C.3       1 <0>         0.0822
     15 H3         -2.5046   -5.8223   -1.0463 H         1 <0>         0.1042
     16 C9         -3.3514   -4.7913    0.6783 C.3       1 <0>         0.1102
     17 H4         -4.3537   -4.4206    0.8929 H         1 <0>         0.1060
     18 O3         -2.3620   -3.8096    1.0602 O.3       1 <0>        -0.3416
     19 C10        -3.1055   -6.1124    1.4099 C.3       1 <0>         0.0840
     20 O4         -3.3996   -5.9498    2.7988 O.3       1 <0>        -0.5643
     21 N3         -4.4535   -5.1591   -1.5074 N.2       1 <0>        -0.3983
     22 N4         -4.4962   -5.3273   -2.6179 N.1       1 <0>         0.3002
     23 N5         -4.5380   -5.4918   -3.7047 N.1       1 <0>        -0.1548
     24 H5          1.0042    1.8801    0.0026 H         1 <0>         0.0822
     25 H6         -0.5455    1.8639   -0.8728 H         1 <0>         0.0726
     26 H7         -0.5286    1.8543    0.9071 H         1 <0>         0.0733
     27 H8         -2.1006   -0.1866    0.0113 H         1 <0>         0.1811
     28 H9         -3.1353   -3.1397   -2.0199 H         1 <0>         0.0946
     29 H10        -1.5163   -3.8510   -1.7306 H         1 <0>         0.1046
     30 H11        -3.7492   -6.8855    0.9903 H         1 <0>         0.0692
     31 H12        -2.0621   -6.4046    1.2913 H         1 <0>         0.0616
     32 H13        -3.2657   -6.7496    3.3255 H         1 <0>         0.3863
@<TRIPOS>BOND
     1    1    2 1
     2    1   24 1
     3    1   25 1
     4    1   26 1
     5    2    9 1
     6    2    3 2
     7    3    4 1
     8    3   27 1
     9    4    5 am
    10    4   11 1
    11    5    6 2
    12    5    7 am
    13    7    8 1
    14    7    9 am
    15    9   10 2
    16   11   12 1
    17   11   18 1
    18   11   13 1
    19   13   14 1
    20   13   28 1
    21   13   29 1
    22   14   15 1
    23   14   16 1
    24   14   21 1
    25   16   17 1
    26   16   18 1
    27   16   19 1
    28   19   20 1
    29   19   30 1
    30   19   31 1
    31   20   32 1
    32   21   22 2
    33   22   23 2
@<TRIPOS>MOLECULE
CHEMBL435030
   47    50     0     0     0
SMALL
USER_CHARGES

@<TRIPOS>ATOM
      1 C1         -0.0224    1.4552    0.0896 C.3       1 <0>        -0.1765
      2 C2         -0.0268   -0.0746    0.0647 C.3       1 <0>         0.1215
      3 N1         -1.4093   -0.5587    0.0432 N.pl3     1 <0>        -0.5844
      4 C3         -2.0839   -0.8041    1.2273 C.ar      1 <0>         0.3830
      5 C4         -3.2738   -0.1129    1.5080 C.ar      1 <0>        -0.1913
      6 C5         -3.9826   -0.4368    2.6702 C.ar      1 <0>         0.0032
      7 C6         -3.4553   -1.3964    3.5174 C.ar      1 <0>        -0.1665
      8 C7         -2.2541   -2.0012    3.1958 C.ar      1 <0>         0.1563
      9 N2         -1.6129   -1.6975    2.0840 N.ar      1 <0>        -0.4930
     10 C8         -3.7529    0.9589    0.6309 C.2       1 <0>         0.5759
     11 O1         -4.2464    1.9332    1.1652 O.2       1 <0>        -0.4901
     12 N3         -3.6955    0.9604   -0.6928 N.am      1 <0>        -0.6430
     13 C9         -3.2026   -0.0604   -1.5085 C.ar      1 <0>         0.0980
     14 C10        -2.0630   -0.7722   -1.1696 C.ar      1 <0>         0.4054
     15 N4         -1.5803   -1.6885   -2.0010 N.ar      1 <0>        -0.5140
     16 C11        -2.1787   -1.9790   -3.1454 C.ar      1 <0>         0.4584
     17 C12        -3.3464   -1.3284   -3.5204 C.ar      1 <0>        -0.1916
     18 C13        -3.8656   -0.3610   -2.6952 C.ar      1 <0>         0.0675
     19 C14        -5.1286    0.3679   -3.0755 C.3       1 <0>        -0.1444
     20 N5         -1.6307   -2.9473   -3.9825 N.pl3     1 <0>        -0.5907
     21 C15        -2.3629   -3.3674   -5.1783 C.3       1 <0>         0.1075
     22 C16        -1.5825   -2.9471   -6.4290 C.3       1 <0>        -0.1185
     23 S1          0.0810   -3.6763   -6.3487 S.3       1 <0>        -0.2053
     24 C17         0.6933   -3.1319   -4.7257 C.3       1 <0>        -0.1179
     25 C18        -0.3268   -3.5284   -3.6593 C.3       1 <0>         0.0978
     26 H1          1.0062    1.8154    0.1055 H         1 <0>         0.0863
     27 H2         -0.5265    1.8345   -0.7994 H         1 <0>         0.0594
     28 H3         -0.5440    1.8056    0.9803 H         1 <0>         0.0664
     29 H4          0.4948   -0.4249   -0.8260 H         1 <0>         0.0778
     30 H5          0.4773   -0.4538    0.9536 H         1 <0>         0.1068
     31 H6         -4.9184    0.0504    2.9009 H         1 <0>         0.1587
     32 H7         -3.9777   -1.6701    4.4222 H         1 <0>         0.1604
     33 H8         -1.8333   -2.7350    3.8672 H         1 <0>         0.1787
     34 H9         -4.0309    1.7522   -1.1418 H         1 <0>         0.4256
     35 H10        -3.8403   -1.5815   -4.4469 H         1 <0>         0.1911
     36 H11        -4.8755    1.2534   -3.6585 H         1 <0>         0.1120
     37 H12        -5.7626   -0.2897   -3.6702 H         1 <0>         0.1046
     38 H13        -5.6612    0.6672   -2.1728 H         1 <0>         0.0944
     39 H14        -2.4805   -4.4510   -5.1704 H         1 <0>         0.1149
     40 H15        -3.3454   -2.8953   -5.1873 H         1 <0>         0.1141
     41 H16        -2.0973   -3.3075   -7.3196 H         1 <0>         0.1373
     42 H17        -1.5043   -1.8605   -6.4634 H         1 <0>         0.0962
     43 H18         1.6492   -3.6117   -4.5156 H         1 <0>         0.1362
     44 H19         0.8171   -2.0489   -4.7260 H         1 <0>         0.0928
     45 H20         0.0044   -3.1603   -2.6883 H         1 <0>         0.0835
     46 H21        -0.4111   -4.6147   -3.6266 H         1 <0>         0.1200
     47 H22        -0.7657   -2.1582   -1.7628 H         1 <0>         0.4356
@<TRIPOS>BOND
     1    1    2 1
     2    1   26 1
     3    1   27 1
     4    1   28 1
     5    2    3 1
     6    2   29 1
     7    2   30 1
     8    3   14 1
     9    3    4 1
    10    4    9 ar
    11    4    5 ar
    12    5    6 ar
    13    5   10 1
    14    6    7 ar
    15    6   31 1
    16    7    8 ar
    17    7   32 1
    18    8    9 ar
    19    8   33 1
    20   10   11 2
    21   10   12 am
    22   12   13 1
    23   12   34 1
    24   13   18 ar
    25   13   14 ar
    26   14   15 ar
    27   15   16 ar
    28   15   47 1
    29   16   17 ar
    30   16   20 1
    31   17   18 ar
    32   17   35 1
    33   18   19 1
    34   19   36 1
    35   19   37 1
    36   19   38 1
    37   20   25 1
    38   20   21 1
    39   21   22 1
    40   21   39 1
    41   21   40 1
    42   22   23 1
    43   22   41 1
    44   22   42 1
    45   23   24 1
    46   24   25 1
    47   24   43 1
    48   24   44 1
    49   25   45 1
    50   25   46 1
@<TRIPOS>MOLECULE
CHEMBL145709
   29    30     0     0     0
SMALL
USER_CHARGES

@<TRIPOS>ATOM
      1 C1         -0.0167    1.3821    0.0096 C.ar      1 <0>        -0.0722
      2 C2          1.1937    2.0586    0.0017 C.ar      1 <0>        -0.1727
      3 C3          2.3701    1.3338   -0.0134 C.ar      1 <0>         0.1065
      4 N1          2.3500    0.0151   -0.0207 N.ar      1 <0>        -0.4774
      5 C4          1.2181   -0.6611   -0.0136 C.ar      1 <0>         0.1284
      6 C5          0.0021   -0.0041    0.0020 C.ar      1 <0>        -0.1659
      7 C6          1.2505   -2.1677   -0.0230 C.3       1 <0>        -0.0815
      8 C7          2.0769   -2.6526   -1.2158 C.3       1 <0>         0.1325
      9 N2          2.1084   -4.1172   -1.2250 N.pl3     1 <0>        -0.6794
     10 C8          2.7828   -4.7707   -2.1918 C.2       1 <0>         0.5256
     11 S1          3.6024   -3.8892   -3.4092 S.2       1 <0>        -0.5058
     12 N3          2.8118   -6.1181   -2.2002 N.pl3     1 <0>        -0.5839
     13 C9          3.5069   -6.7918   -3.1969 C.2       1 <0>         0.2557
     14 N4          4.1928   -6.2868   -4.1995 N.2       1 <0>        -0.4554
     15 C10         4.8033   -7.0688   -5.0709 C.2       1 <0>         0.0518
     16 C11         4.6898   -8.4064   -4.8837 C.2       1 <0>        -0.2306
     17 S2          3.6820   -8.4520   -3.4105 S.3       1 <0>         0.0968
     18 H1         -0.9518    1.9222    0.0259 H         1 <0>         0.1366
     19 H2          1.2167    3.1384    0.0069 H         1 <0>         0.1373
     20 H3          3.3170    1.8532   -0.0197 H         1 <0>         0.1593
     21 H4         -0.9217   -0.5635    0.0082 H         1 <0>         0.1352
     22 H5          1.7018   -2.5272    0.9018 H         1 <0>         0.0912
     23 H6          0.2340   -2.5525   -0.1048 H         1 <0>         0.0871
     24 H7          1.6257   -2.2931   -2.1406 H         1 <0>         0.0886
     25 H8          3.0934   -2.2678   -1.1340 H         1 <0>         0.1028
     26 H9          1.6440   -4.6167   -0.5352 H         1 <0>         0.3965
     27 H10         2.3473   -6.6176   -1.5104 H         1 <0>         0.4161
     28 H11         5.3677   -6.6608   -5.8964 H         1 <0>         0.1774
     29 H12         5.0994   -9.2203   -5.4635 H         1 <0>         0.1996
@<TRIPOS>BOND
     1    1    6 ar
     2    1    2 ar
     3    1   18 1
     4    2    3 ar
     5    2   19 1
     6    3    4 ar
     7    3   20 1
     8    4    5 ar
     9    5    6 ar
    10    5    7 1
    11    6   21 1
    12    7    8 1
    13    7   22 1
    14    7   23 1
    15    8    9 1
    16    8   24 1
    17    8   25 1
    18    9   10 1
    19    9   26 1
    20   10   11 2
    21   10   12 1
    22   12   13 1
    23   12   27 1
    24   13   17 1
    25   13   14 2
    26   14   15 1
    27   15   16 2
    28   15   28 1
    29   16   17 1
    30   16   29 1
@<TRIPOS>MOLECULE
CHEMBL70629
   40    42     0     0     0
SMALL
USER_CHARGES

@<TRIPOS>ATOM
      1 C1          0.3110    0.9948    0.2562 C.3       1 <0>        -0.1703
      2 C2          0.3037   -0.5174    0.0239 C.3       1 <0>         0.1340
      3 N1          0.8650   -0.8109   -1.2945 N.pl3     1 <0>        -0.5877
      4 C3         -0.0037   -0.9243   -2.3943 C.ar      1 <0>         0.1402
      5 C4         -1.0387   -1.8433   -2.2915 C.ar      1 <0>        -0.1179
      6 C5         -1.9465   -1.9955   -3.3202 C.ar      1 <0>        -0.1042
      7 C6         -1.7945   -1.2433   -4.4650 C.ar      1 <0>        -0.0762
      8 C7         -0.7412   -0.3473   -4.5838 C.ar      1 <0>        -0.0835
      9 C8          0.1414   -0.1336   -3.5458 C.ar      1 <0>         0.1460
     10 N2          1.1008    0.8642   -3.5285 N.am      1 <0>        -0.5387
     11 C9          2.3463    0.8350   -3.0940 C.2       1 <0>         0.5759
     12 O1          3.0360    1.8141   -3.3035 O.2       1 <0>        -0.5289
     13 C10         2.9695   -0.2752   -2.3642 C.ar      1 <0>        -0.2059
     14 C11         2.2119   -1.0328   -1.4678 C.ar      1 <0>         0.4164
     15 N3          2.7981   -2.0023   -0.7694 N.ar      1 <0>        -0.5117
     16 C12         4.0735   -2.2970   -0.9185 C.ar      1 <0>         0.1512
     17 C13         4.8716   -1.6090   -1.8143 C.ar      1 <0>        -0.1981
     18 C14         4.3209   -0.5763   -2.5549 C.ar      1 <0>         0.0009
     19 C15         0.6717    2.2220   -3.9167 C.3       1 <0>         0.0574
     20 C16        -0.5760    0.3067   -5.9376 C.3       1 <0>        -0.1196
     21 C17        -2.7741   -1.3887   -5.6014 C.3       1 <0>        -0.1188
     22 H1          1.3350    1.3651    0.2066 H         1 <0>         0.0529
     23 H2         -0.2894    1.4832   -0.5113 H         1 <0>         0.0557
     24 H3         -0.1073    1.2135    1.2387 H         1 <0>         0.0703
     25 H4          0.9042   -1.0058    0.7913 H         1 <0>         0.0820
     26 H5         -0.7203   -0.8877    0.0734 H         1 <0>         0.0796
     27 H6         -1.1358   -2.4534   -1.4040 H         1 <0>         0.1313
     28 H7         -2.7639   -2.6938   -3.2273 H         1 <0>         0.1328
     29 H8          4.5058   -3.0930   -0.3293 H         1 <0>         0.1648
     30 H9          5.9112   -1.8731   -1.9346 H         1 <0>         0.1467
     31 H10         4.9208   -0.0206   -3.2600 H         1 <0>         0.1472
     32 H11         0.3336    2.7628   -3.0328 H         1 <0>         0.0616
     33 H12         1.5097    2.7525   -4.3688 H         1 <0>         0.0954
     34 H13        -0.1451    2.1534   -4.6352 H         1 <0>         0.0811
     35 H14        -1.2262    1.1792   -6.0014 H         1 <0>         0.0749
     36 H15         0.4611    0.6161   -6.0675 H         1 <0>         0.0650
     37 H16        -0.8438   -0.4040   -6.7195 H         1 <0>         0.0803
     38 H17        -3.5358   -0.6126   -5.5260 H         1 <0>         0.0748
     39 H18        -2.2471   -1.2895   -6.5503 H         1 <0>         0.0742
     40 H19        -3.2479   -2.3689   -5.5495 H         1 <0>         0.0687
@<TRIPOS>BOND
     1    1    2 1
     2    1   22 1
     3    1   23 1
     4    1   24 1
     5    2    3 1
     6    2   25 1
     7    2   26 1
     8    3   14 1
     9    3    4 1
    10    4    9 ar
    11    4    5 ar
    12    5    6 ar
    13    5   27 1
    14    6    7 ar
    15    6   28 1
    16    7    8 ar
    17    7   21 1
    18    8    9 ar
    19    8   20 1
    20    9   10 1
    21   10   11 am
    22   10   19 1
    23   11   12 2
    24   11   13 1
    25   13   18 ar
    26   13   14 ar
    27   14   15 ar
    28   15   16 ar
    29   16   17 ar
    30   16   29 1
    31   17   18 ar
    32   17   30 1
    33   18   31 1
    34   19   32 1
    35   19   33 1
    36   19   34 1
    37   20   35 1
    38   20   36 1
    39   20   37 1
    40   21   38 1
    41   21   39 1
    42   21   40 1
@<TRIPOS>MOLECULE
CHEMBL262633
   81    85     0     0     0
SMALL
USER_CHARGES

@<TRIPOS>ATOM
      1 C1          6.9409   -6.5159    2.2567 C.3       1 <0>        -0.1699
      2 C2          5.6232   -7.0474    2.8242 C.3       1 <0>         0.1039
      3 N1          4.7465   -5.9225    3.1588 N.pl3     1 <0>        -0.7071
      4 C3          3.4765   -6.1609    3.6978 C.ar      1 <0>         0.2198
      5 C4          2.9879   -7.4563    3.8048 C.ar      1 <0>        -0.0824
      6 C5          1.7232   -7.6434    4.3463 C.ar      1 <0>        -0.0750
      7 C6          0.9943   -6.5465    4.7591 C.ar      1 <0>         0.0787
      8 N2          1.4819   -5.3246    4.6465 N.ar      1 <0>        -0.4166
      9 C7          2.6836   -5.0997    4.1418 C.ar      1 <0>         0.3136
     10 N3          3.1600   -3.7943    4.0470 N.pl3     1 <0>        -0.6608
     11 C8          2.9019   -3.0062    2.8393 C.3       1 <0>         0.1226
     12 C9          1.5292   -2.3395    2.9491 C.3       1 <0>        -0.1846
     13 C10         3.9193   -3.2093    5.1549 C.3       1 <0>         0.1659
     14 C11         3.2405   -1.9159    5.6113 C.3       1 <0>        -0.1486
     15 C12         4.0174   -1.3254    6.7922 C.3       1 <0>         0.1137
     16 N4          5.4237   -1.1626    6.3991 N.am      1 <0>        -0.6141
     17 C13         6.1457   -2.3236    5.8608 C.3       1 <0>         0.0871
     18 C14         5.3449   -2.9028    4.6903 C.3       1 <0>        -0.1540
     19 C15         6.0397    0.0290    6.5294 C.2       1 <0>         0.5875
     20 O1          5.4620    0.9572    7.0630 O.2       1 <0>        -0.5027
     21 C16         7.4100    0.2073    6.0265 C.2       1 <0>         0.0182
     22 C17         8.3239    1.0814    6.5235 C.2       1 <0>        -0.0992
     23 C18         9.5113    0.9422    5.7648 C.ar      1 <0>        -0.0964
     24 C19        10.7633    1.5691    5.8167 C.ar      1 <0>        -0.0804
     25 C20        11.7456    1.2080    4.9174 C.ar      1 <0>         0.1281
     26 C21        11.4969    0.2240    3.9602 C.ar      1 <0>        -0.0779
     27 C22        10.2720   -0.3989    3.8984 C.ar      1 <0>        -0.1121
     28 C23         9.2666   -0.0503    4.7963 C.ar      1 <0>         0.1055
     29 N5          7.9751   -0.4912    4.9776 N.pl3     1 <0>        -0.5819
     30 H1          7.5338   -1.1778    4.4533 H         1 <0>         0.4191
     31 N6         12.9992    1.8331    4.9656 N.am      1 <0>        -0.6776
     32 C24        13.6779    2.0710    3.8257 C.2       1 <0>         0.7134
     33 O2         13.1573    1.8464    2.7501 O.2       1 <0>        -0.5487
     34 N7         14.9335    2.5579    3.8781 N.am      1 <0>        -0.6440
     35 C25        15.6302    2.7166    5.1640 C.3       1 <0>         0.0837
     36 C26        17.0098    2.0593    5.0534 C.3       1 <0>        -0.0201
     37 N8         17.7275    2.6207    3.9020 N.4       1 <0>        -0.3855
     38 C27        17.0254    2.2770    2.6590 C.3       1 <0>        -0.0209
     39 C28        15.6485    2.9398    2.6505 C.3       1 <0>         0.1048
     40 C29        19.0894    2.0715    3.8609 C.3       1 <0>        -0.0473
     41 H2          7.4279   -5.8841    2.9996 H         1 <0>         0.0649
     42 H3          7.5932   -7.3529    2.0077 H         1 <0>         0.0885
     43 H4          6.7403   -5.9319    1.3585 H         1 <0>         0.0674
     44 H5          5.1363   -7.6792    2.0813 H         1 <0>         0.0787
     45 H6          5.8238   -7.6314    3.7224 H         1 <0>         0.0787
     46 H7          5.0458   -5.0124    3.0070 H         1 <0>         0.4134
     47 H8          3.5776   -8.2985    3.4742 H         1 <0>         0.1719
     48 H9          1.3134   -8.6379    4.4433 H         1 <0>         0.1863
     49 H10         0.0102   -6.6898    5.1803 H         1 <0>         0.2057
     50 H11         3.6704   -2.2404    2.7339 H         1 <0>         0.0926
     51 H12         2.9193   -3.6607    1.9678 H         1 <0>         0.0750
     52 H13         1.3372   -1.7531    2.0505 H         1 <0>         0.0790
     53 H14         0.7607   -3.1052    3.0544 H         1 <0>         0.0487
     54 H15         1.5119   -1.6850    3.8206 H         1 <0>         0.0703
     55 H16         3.9517   -3.9147    5.9853 H         1 <0>         0.0904
     56 H17         3.2299   -1.2007    4.7888 H         1 <0>         0.0828
     57 H18         2.2176   -2.1312    5.9201 H         1 <0>         0.0839
     58 H19         3.5975   -0.3551    7.0574 H         1 <0>         0.1069
     59 H20         3.9524   -1.9997    7.6462 H         1 <0>         0.0760
     60 H21         7.1300   -2.0119    5.5114 H         1 <0>         0.1012
     61 H22         6.2542   -3.0793    6.6388 H         1 <0>         0.0829
     62 H23         5.8198   -3.8206    4.3435 H         1 <0>         0.0817
     63 H24         5.3145   -2.1784    3.8765 H         1 <0>         0.0798
     64 H25         8.1718    1.7609    7.3491 H         1 <0>         0.1596
     65 H26        10.9584    2.3314    6.5565 H         1 <0>         0.1332
     66 H27        12.2730   -0.0509    3.2612 H         1 <0>         0.1383
     67 H28        10.0901   -1.1590    3.1531 H         1 <0>         0.1288
     68 H29        13.3784    2.0944    5.8193 H         1 <0>         0.4064
     69 H30        15.7465    3.7768    5.3891 H         1 <0>         0.1022
     70 H31        15.0560    2.2324    5.9539 H         1 <0>         0.1216
     71 H32        17.5776    2.2505    5.9640 H         1 <0>         0.1470
     72 H33        16.8905    0.9843    4.9184 H         1 <0>         0.1343
     73 H34        17.6046    2.6286    1.8052 H         1 <0>         0.1477
     74 H35        16.9055    1.1954    2.5964 H         1 <0>         0.1340
     75 H36        15.0865    2.6031    1.7795 H         1 <0>         0.1400
     76 H37        15.7668    4.0229    2.6175 H         1 <0>         0.0968
     77 H38        19.0410    0.9867    3.7660 H         1 <0>         0.1224
     78 H39        19.6233    2.4875    3.0065 H         1 <0>         0.1278
     79 H40        19.6144    2.3328    4.7797 H         1 <0>         0.1270
     80 H41         0.9465   -4.5728    4.9448 H         1 <0>         0.4418
     81 H42        17.7749    3.6244    3.9935 H         1 <0>         0.4269
@<TRIPOS>BOND
     1    1    2 1
     2    1   41 1
     3    1   42 1
     4    1   43 1
     5    2    3 1
     6    2   44 1
     7    2   45 1
     8    3    4 1
     9    3   46 1
    10    4    9 ar
    11    4    5 ar
    12    5    6 ar
    13    5   47 1
    14    6    7 ar
    15    6   48 1
    16    7    8 ar
    17    7   49 1
    18    8    9 ar
    19    8   80 1
    20    9   10 1
    21   10   11 1
    22   10   13 1
    23   11   12 1
    24   11   50 1
    25   11   51 1
    26   12   52 1
    27   12   53 1
    28   12   54 1
    29   13   18 1
    30   13   14 1
    31   13   55 1
    32   14   15 1
    33   14   56 1
    34   14   57 1
    35   15   16 1
    36   15   58 1
    37   15   59 1
    38   16   17 1
    39   16   19 am
    40   17   18 1
    41   17   60 1
    42   17   61 1
    43   18   62 1
    44   18   63 1
    45   19   20 2
    46   19   21 1
    47   21   29 1
    48   21   22 2
    49   22   23 1
    50   22   64 1
    51   23   28 ar
    52   23   24 ar
    53   24   25 ar
    54   24   65 1
    55   25   26 ar
    56   25   31 1
    57   26   27 ar
    58   26   66 1
    59   27   28 ar
    60   27   67 1
    61   28   29 1
    62   29   30 1
    63   31   32 am
    64   31   68 1
    65   32   33 2
    66   32   34 am
    67   34   39 1
    68   34   35 1
    69   35   36 1
    70   35   69 1
    71   35   70 1
    72   36   37 1
    73   36   71 1
    74   36   72 1
    75   37   38 1
    76   37   40 1
    77   37   81 1
    78   38   39 1
    79   38   73 1
    80   38   74 1
    81   39   75 1
    82   39   76 1
    83   40   77 1
    84   40   78 1
    85   40   79 1
@<TRIPOS>MOLECULE
CHEMBL262633__1
   80    84     0     0     0
SMALL
USER_CHARGES

@<TRIPOS>ATOM
      1 C1         -5.3172   -6.7003    4.7486 C.3       1 <0>        -0.1710
      2 C2         -5.1397   -7.2000    3.3135 C.3       1 <0>         0.1043
      3 N1         -5.0088   -6.0542    2.4101 N.pl3     1 <0>        -0.7057
      4 C3         -4.8354   -6.2620    1.0364 C.ar      1 <0>         0.2205
      5 C4         -4.6617   -7.5447    0.5338 C.ar      1 <0>        -0.0840
      6 C5         -4.4939   -7.7013   -0.8355 C.ar      1 <0>        -0.0755
      7 C6         -4.5044   -6.5877   -1.6507 C.ar      1 <0>         0.0752
      8 N2         -4.6714   -5.3783   -1.1476 N.ar      1 <0>        -0.4163
      9 C7         -4.8402   -5.1824    0.1494 C.ar      1 <0>         0.3157
     10 N3         -5.0184   -3.8894    0.6356 N.pl3     1 <0>        -0.6609
     11 C8         -3.8571   -3.0898    1.0333 C.3       1 <0>         0.1221
     12 C9         -3.2760   -2.3881   -0.1959 C.3       1 <0>        -0.1839
     13 C10        -6.3672   -3.3291    0.7494 C.3       1 <0>         0.1658
     14 C11        -6.4439   -2.0204   -0.0404 C.3       1 <0>        -0.1479
     15 C12        -7.8648   -1.4553    0.0522 C.3       1 <0>         0.1143
     16 N4         -8.2314   -1.3273    1.4692 N.am      1 <0>        -0.6157
     17 C13        -8.1077   -2.5043    2.3400 C.3       1 <0>         0.0864
     18 C14        -6.6841   -3.0576    2.2218 C.3       1 <0>        -0.1538
     19 C15        -8.6724   -0.1526    1.9610 C.2       1 <0>         0.5906
     20 O1         -8.8604    0.7880    1.2127 O.2       1 <0>        -0.5067
     21 C16        -8.9264   -0.0077    3.4022 C.2       1 <0>         0.0068
     22 C17        -9.8289    0.8402    3.9616 C.2       1 <0>        -0.0951
     23 C18        -9.7646    0.6735    5.3662 C.ar      1 <0>        -0.0968
     24 C19       -10.4469    1.2676    6.4362 C.ar      1 <0>        -0.0918
     25 C20       -10.1545    0.8849    7.7293 C.ar      1 <0>         0.1483
     26 C21        -9.1851   -0.0881    7.9738 C.ar      1 <0>        -0.0734
     27 C22        -8.5078   -0.6788    6.9323 C.ar      1 <0>        -0.1174
     28 C23        -8.7872   -0.3081    5.6197 C.ar      1 <0>         0.1008
     29 N5         -8.2900   -0.7162    4.4025 N.pl3     1 <0>        -0.5845
     30 H1         -7.6039   -1.3888    4.2694 H         1 <0>         0.4159
     31 N6        -10.8344    1.4771    8.8025 N.am      1 <0>        -0.6871
     32 C24       -10.1917    1.7023    9.9655 C.2       1 <0>         0.7098
     33 O2         -8.9964    1.4960   10.0495 O.2       1 <0>        -0.5727
     34 N7        -10.8740    2.1561   11.0356 N.am      1 <0>        -0.6260
     35 C25       -12.3382    2.2904   10.9958 C.3       1 <0>         0.1123
     36 C26       -12.9254    1.5819   12.2211 C.3       1 <0>         0.0402
     37 N8        -12.2866    2.1029   13.4370 N.3       1 <0>        -0.5427
     38 C27       -10.8468    1.8121   13.4489 C.3       1 <0>         0.0392
     39 C28       -10.1749    2.5243   12.2761 C.3       1 <0>         0.1323
     40 C29       -12.9402    1.5756   14.6423 C.3       1 <0>         0.0240
     41 H2         -5.4146   -7.5528    5.4208 H         1 <0>         0.0887
     42 H3         -4.4491   -6.1076    5.0370 H         1 <0>         0.0678
     43 H4         -6.2144   -6.0845    4.8106 H         1 <0>         0.0666
     44 H5         -4.2424   -7.8158    3.2515 H         1 <0>         0.0781
     45 H6         -6.0078   -7.7927    3.0251 H         1 <0>         0.0787
     46 H7         -5.0424   -5.1515    2.7636 H         1 <0>         0.4144
     47 H8         -4.6568   -8.4005    1.1926 H         1 <0>         0.1715
     48 H9         -4.3560   -8.6853   -1.2588 H         1 <0>         0.1851
     49 H10        -4.3737   -6.7072   -2.7161 H         1 <0>         0.2044
     50 H11        -4.1635   -2.3438    1.7666 H         1 <0>         0.0940
     51 H12        -3.1006   -3.7407    1.4716 H         1 <0>         0.0746
     52 H13        -2.9696   -3.1341   -0.9291 H         1 <0>         0.0476
     53 H14        -4.0325   -1.7372   -0.6342 H         1 <0>         0.0705
     54 H15        -2.4119   -1.7932    0.1000 H         1 <0>         0.0786
     55 H16        -7.0903   -4.0386    0.3471 H         1 <0>         0.0898
     56 H17        -5.7387   -1.3017    0.3770 H         1 <0>         0.0827
     57 H18        -6.1953   -2.2105   -1.0845 H         1 <0>         0.0820
     58 H19        -7.9001   -0.4756   -0.4243 H         1 <0>         0.1059
     59 H20        -8.5600   -2.1313   -0.4455 H         1 <0>         0.0741
     60 H21        -8.3033   -2.2167    3.3730 H         1 <0>         0.1047
     61 H22        -8.8228   -3.2658    2.0288 H         1 <0>         0.0813
     62 H23        -6.6064   -3.9859    2.7878 H         1 <0>         0.0810
     63 H24        -5.9766   -2.3292    2.6179 H         1 <0>         0.0802
     64 H25       -10.4785    1.5198    3.4301 H         1 <0>         0.1569
     65 H26       -11.1975    2.0213    6.2498 H         1 <0>         0.1323
     66 H27        -8.9642   -0.3801    8.9898 H         1 <0>         0.1410
     67 H28        -7.7590   -1.4307    7.1329 H         1 <0>         0.1258
     68 H29       -11.7675    1.7248    8.7081 H         1 <0>         0.4071
     69 H30       -12.6097    3.3458   11.0181 H         1 <0>         0.0837
     70 H31       -12.7236    1.8293   10.0865 H         1 <0>         0.0806
     71 H32       -13.9990    1.7649   12.2673 H         1 <0>         0.0915
     72 H33       -12.7417    0.5102   12.1444 H         1 <0>         0.0398
     73 H34       -10.4128    2.1621   14.3856 H         1 <0>         0.0923
     74 H35       -10.6920    0.7373   13.3551 H         1 <0>         0.0395
     75 H36        -9.1308    2.2178   12.2127 H         1 <0>         0.1001
     76 H37       -10.2345    3.6026   12.4237 H         1 <0>         0.0777
     77 H38       -12.8683    0.4880   14.6484 H         1 <0>         0.0270
     78 H39       -12.4476    1.9772   15.5279 H         1 <0>         0.0729
     79 H40       -13.9896    1.8704   14.6451 H         1 <0>         0.0725
     80 H41        -4.6740   -4.6142   -1.7452 H         1 <0>         0.4414
@<TRIPOS>BOND
     1    1    2 1
     2    1   41 1
     3    1   42 1
     4    1   43 1
     5    2    3 1
     6    2   44 1
     7    2   45 1
     8    3    4 1
     9    3   46 1
    10    4    9 ar
    11    4    5 ar
    12    5    6 ar
    13    5   47 1
    14    6    7 ar
    15    6   48 1
    16    7    8 ar
    17    7   49 1
    18    8    9 ar
    19    8   80 1
    20    9   10 1
    21   10   11 1
    22   10   13 1
    23   11   12 1
    24   11   50 1
    25   11   51 1
    26   12   52 1
    27   12   53 1
    28   12   54 1
    29   13   18 1
    30   13   14 1
    31   13   55 1
    32   14   15 1
    33   14   56 1
    34   14   57 1
    35   15   16 1
    36   15   58 1
    37   15   59 1
    38   16   17 1
    39   16   19 am
    40   17   18 1
    41   17   60 1
    42   17   61 1
    43   18   62 1
    44   18   63 1
    45   19   20 2
    46   19   21 1
    47   21   29 1
    48   21   22 2
    49   22   23 1
    50   22   64 1
    51   23   28 ar
    52   23   24 ar
    53   24   25 ar
    54   24   65 1
    55   25   26 ar
    56   25   31 1
    57   26   27 ar
    58   26   66 1
    59   27   28 ar
    60   27   67 1
    61   28   29 1
    62   29   30 1
    63   31   32 am
    64   31   68 1
    65   32   33 2
    66   32   34 am
    67   34   39 1
    68   34   35 1
    69   35   36 1
    70   35   69 1
    71   35   70 1
    72   36   37 1
    73   36   71 1
    74   36   72 1
    75   37   38 1
    76   37   40 1
    77   38   39 1
    78   38   73 1
    79   38   74 1
    80   39   75 1
    81   39   76 1
    82   40   77 1
    83   40   78 1
    84   40   79 1
@<TRIPOS>MOLECULE
CHEMBL539427
   35    37     0     0     0
SMALL
USER_CHARGES

@<TRIPOS>ATOM
      1 C1         -0.0560    1.3157    0.0310 C.ar      1 <0>        -0.1204
      2 C2          1.1296    2.0264    0.0431 C.ar      1 <0>        -0.1128
      3 C3          2.3380    1.3553    0.0281 C.ar      1 <0>        -0.1098
      4 C4          2.3608   -0.0266    0.0014 C.ar      1 <0>        -0.0560
      5 C5          1.1753   -0.7374   -0.0098 C.ar      1 <0>        -0.1319
      6 C6         -0.0331   -0.0662    0.0038 C.ar      1 <0>        -0.1105
      7 C7          3.6782   -0.7582   -0.0160 C.3       1 <0>        -0.1171
      8 H1          4.5210   -0.2194    0.4170 H         1 <0>         0.1259
      9 C8          3.6449   -2.2776    0.1612 C.3       1 <0>        -0.1806
     10 C9          3.9624   -1.6732   -1.2089 C.3       1 <0>         0.0889
     11 H2          4.9922   -1.7367   -1.5604 H         1 <0>         0.1331
     12 N1          2.9331   -1.7710   -2.2467 N.pl3     1 <0>        -0.6810
     13 C10         3.2805   -2.1205   -3.5257 C.2       1 <0>         0.6853
     14 N2          4.5909   -2.3784   -3.8337 N.pl3     1 <0>        -0.8752
     15 N3          2.3566   -2.2082   -4.4572 N.2       1 <0>        -0.6329
     16 C11         2.6838   -2.6625   -5.7025 C.ar      1 <0>         0.3695
     17 C12         2.5019   -4.0123   -6.0190 C.ar      1 <0>        -0.1887
     18 C13         2.8373   -4.4559   -7.2833 C.ar      1 <0>        -0.0300
     19 C14         3.3453   -3.5385   -8.1967 C.ar      1 <0>        -0.1787
     20 C15         3.4998   -2.2188   -7.8190 C.ar      1 <0>         0.1539
     21 N4          3.1678   -1.8173   -6.6072 N.ar      1 <0>        -0.5055
     22 Br1         3.8210   -4.0931   -9.9408 Br        1 <0>        -0.0402
     23 H3         -1.0000    1.8400    0.0473 H         1 <0>         0.1235
     24 H4          1.1118    3.1061    0.0640 H         1 <0>         0.1242
     25 H5          3.2643    1.9106    0.0369 H         1 <0>         0.1229
     26 H6          1.1931   -1.8170   -0.0310 H         1 <0>         0.1230
     27 H7         -0.9594   -0.6215   -0.0053 H         1 <0>         0.1247
     28 H8          4.4659   -2.7384    0.7105 H         1 <0>         0.1127
     29 H9          2.6701   -2.7479    0.2904 H         1 <0>         0.1065
     30 H10         2.0057   -1.5885   -2.0287 H         1 <0>         0.4244
     31 H11         5.2826   -2.2355   -3.1688 H         1 <0>         0.3976
     32 H12         2.1052   -4.6983   -5.2852 H         1 <0>         0.1397
     33 H13         2.7083   -5.4927   -7.5565 H         1 <0>         0.1424
     34 H14         3.8942   -1.5050   -8.5271 H         1 <0>         0.1614
     35 H15         4.8266   -2.7038   -4.7166 H         1 <0>         0.4116
@<TRIPOS>BOND
     1    1    6 ar
     2    1    2 ar
     3    1   23 1
     4    2    3 ar
     5    2   24 1
     6    3    4 ar
     7    3   25 1
     8    4    5 ar
     9    4    7 1
    10    5    6 ar
    11    5   26 1
    12    6   27 1
    13    7    8 1
    14    7   10 1
    15    7    9 1
    16    9   10 1
    17    9   28 1
    18    9   29 1
    19   10   11 1
    20   10   12 1
    21   12   13 1
    22   12   30 1
    23   13   14 1
    24   13   15 2
    25   14   31 1
    26   14   35 1
    27   15   16 1
    28   16   21 ar
    29   16   17 ar
    30   17   18 ar
    31   17   32 1
    32   18   19 ar
    33   18   33 1
    34   19   20 ar
    35   19   22 1
    36   20   21 ar
    37   20   34 1
@<TRIPOS>MOLECULE
CHEMBL539427__1
   36    38     0     0     0
SMALL
USER_CHARGES

@<TRIPOS>ATOM
      1 C1          0.9058    2.3998   -0.5794 C.ar      1 <0>        -0.1111
      2 C2          2.2520    2.7017   -0.4941 C.ar      1 <0>        -0.1070
      3 C3          3.1768    1.6908   -0.3099 C.ar      1 <0>        -0.1033
      4 C4          2.7552    0.3781   -0.2106 C.ar      1 <0>        -0.0750
      5 C5          1.4088    0.0763   -0.2950 C.ar      1 <0>        -0.1438
      6 C6          0.4842    1.0870   -0.4806 C.ar      1 <0>        -0.1107
      7 C7          3.7634   -0.7240   -0.0108 C.3       1 <0>        -0.0914
      8 H1          4.6969   -0.4263    0.4668 H         1 <0>         0.1399
      9 C8          3.2281   -2.1241    0.2960 C.3       1 <0>        -0.1614
     10 C9          3.8331   -1.8194   -1.0766 C.3       1 <0>         0.0456
     11 H2          4.8124   -2.2427   -1.3000 H         1 <0>         0.1483
     12 N1          2.9147   -1.7167   -2.2134 N.pl3     1 <0>        -0.6626
     13 C10         3.2342   -2.3111   -3.4113 C.cat     1 <0>         0.7416
     14 N2          4.3540   -2.9658   -3.5355 N.pl3     1 <0>        -0.7445
     15 N3          2.3708   -2.2144   -4.4800 N.pl3     1 <0>        -0.6286
     16 C11         2.7575   -2.6856   -5.7329 C.ar      1 <0>         0.3559
     17 C12         1.8408   -2.6940   -6.7787 C.ar      1 <0>        -0.1659
     18 C13         2.2375   -3.1644   -8.0176 C.ar      1 <0>         0.0041
     19 C14         3.5438   -3.6124   -8.1692 C.ar      1 <0>        -0.1569
     20 C15         4.4011   -3.5752   -7.0866 C.ar      1 <0>         0.1826
     21 N4          3.9954   -3.1159   -5.9180 N.ar      1 <0>        -0.5322
     22 Br1         4.1418   -4.2668   -9.8395 Br        1 <0>         0.0099
     23 H3          0.1829    3.1900   -0.7189 H         1 <0>         0.1299
     24 H4          2.5814    3.7273   -0.5717 H         1 <0>         0.1307
     25 H5          4.2286    1.9267   -0.2439 H         1 <0>         0.1281
     26 H6          1.0795   -0.9494   -0.2178 H         1 <0>         0.1225
     27 H7         -0.5676    0.8511   -0.5470 H         1 <0>         0.1293
     28 H8          3.8096   -2.7476    0.9751 H         1 <0>         0.1282
     29 H9          2.1466   -2.2480    0.3534 H         1 <0>         0.1154
     30 H10         2.0812   -1.2293   -2.1209 H         1 <0>         0.4339
     31 H11         4.5332   -3.4712   -4.3439 H         1 <0>         0.4472
     32 H12         1.4934   -1.8184   -4.3604 H         1 <0>         0.4516
     33 H13         0.8326   -2.3385   -6.6255 H         1 <0>         0.1634
     34 H14         1.5474   -3.1832   -8.8481 H         1 <0>         0.1679
     35 H15         5.4176   -3.9223   -7.1994 H         1 <0>         0.1889
     36 H16         5.0083   -2.9479   -2.8197 H         1 <0>         0.4296
@<TRIPOS>BOND
     1    1    6 ar
     2    1    2 ar
     3    1   23 1
     4    2    3 ar
     5    2   24 1
     6    3    4 ar
     7    3   25 1
     8    4    5 ar
     9    4    7 1
    10    5    6 ar
    11    5   26 1
    12    6   27 1
    13    7    8 1
    14    7   10 1
    15    7    9 1
    16    9   10 1
    17    9   28 1
    18    9   29 1
    19   10   11 1
    20   10   12 1
    21   12   13 1
    22   12   30 1
    23   13   14 2
    24   13   15 1
    25   14   31 1
    26   14   36 1
    27   15   16 1
    28   15   32 1
    29   16   21 ar
    30   16   17 ar
    31   17   18 ar
    32   17   33 1
    33   18   19 ar
    34   18   34 1
    35   19   20 ar
    36   19   22 1
    37   20   21 ar
    38   20   35 1
@<TRIPOS>MOLECULE
CHEMBL539427__2
   36    38     0     0     0
SMALL
USER_CHARGES

@<TRIPOS>ATOM
      1 C1         -0.8101    0.0460    0.2435 C.ar      1 <0>        -0.1098
      2 C2          0.1662    1.0137    0.3891 C.ar      1 <0>        -0.1060
      3 C3          1.5019    0.6603    0.3434 C.ar      1 <0>        -0.1020
      4 C4          1.8612   -0.6609    0.1527 C.ar      1 <0>        -0.0788
      5 C5          0.8848   -1.6287    0.0080 C.ar      1 <0>        -0.1466
      6 C6         -0.4508   -1.2751    0.0523 C.ar      1 <0>        -0.1099
      7 C7          3.3172   -1.0460    0.1019 C.3       1 <0>        -0.0875
      8 H1          3.9986   -0.3792    0.6304 H         1 <0>         0.1428
      9 C8          3.6534   -2.5386    0.0947 C.3       1 <0>        -0.1589
     10 C9          3.8286   -1.7080   -1.1792 C.3       1 <0>         0.0316
     11 H2          4.8465   -1.4771   -1.4933 H         1 <0>         0.1624
     12 N1          2.8653   -1.9190   -2.2625 N.pl3     1 <0>        -0.6106
     13 C10         3.2744   -1.9621   -3.4990 C.cat     1 <0>         0.7485
     14 N2          4.6201   -1.9290   -3.7794 N.pl3     1 <0>        -0.7987
     15 N3          2.3589   -2.0409   -4.5250 N.pl3     1 <0>        -0.6248
     16 C11         2.7955   -2.2190   -5.8362 C.ar      1 <0>         0.3467
     17 C12         1.8804   -2.1558   -6.8814 C.ar      1 <0>        -0.1676
     18 C13         2.3268   -2.3344   -8.1784 C.ar      1 <0>        -0.0041
     19 C14         3.6798   -2.5711   -8.3869 C.ar      1 <0>        -0.1553
     20 C15         4.5325   -2.6208   -7.3013 C.ar      1 <0>         0.1753
     21 N4          4.0781   -2.4413   -6.0756 N.ar      1 <0>        -0.5110
     22 Br1         4.3470   -2.8233  -10.1383 Br        1 <0>         0.0045
     23 H3         -1.8536    0.3214    0.2837 H         1 <0>         0.1309
     24 H4         -0.1144    2.0459    0.5381 H         1 <0>         0.1318
     25 H5          2.2647    1.4164    0.4564 H         1 <0>         0.1292
     26 H6          1.1655   -2.6608   -0.1414 H         1 <0>         0.1219
     27 H7         -1.2136   -2.0312   -0.0611 H         1 <0>         0.1302
     28 H8          4.5561   -2.8537    0.6181 H         1 <0>         0.1320
     29 H9          2.8214   -3.2420    0.1266 H         1 <0>         0.1164
     30 H10         1.9229   -2.0267   -2.0595 H         1 <0>         0.4348
     31 H11         5.2478   -2.3878   -3.1994 H         1 <0>         0.4337
     32 H12         0.8351   -1.9702   -6.6831 H         1 <0>         0.1590
     33 H13         1.6392   -2.2911   -9.0101 H         1 <0>         0.1648
     34 H14         5.5851   -2.8049   -7.4581 H         1 <0>         0.1853
     35 H15         4.9417   -1.4469   -4.5573 H         1 <0>         0.4426
     36 H16         1.4102   -1.9723   -4.3348 H         1 <0>         0.4473
@<TRIPOS>BOND
     1    1    6 ar
     2    1    2 ar
     3    1   23 1
     4    2    3 ar
     5    2   24 1
     6    3    4 ar
     7    3   25 1
     8    4    5 ar
     9    4    7 1
    10    5    6 ar
    11    5   26 1
    12    6   27 1
    13    7    8 1
    14    7   10 1
    15    7    9 1
    16    9   10 1
    17    9   28 1
    18    9   29 1
    19   10   11 1
    20   10   12 1
    21   12   13 2
    22   12   30 1
    23   13   14 1
    24   13   15 1
    25   14   31 1
    26   14   35 1
    27   15   16 1
    28   15   36 1
    29   16   21 ar
    30   16   17 ar
    31   17   18 ar
    32   17   32 1
    33   18   19 ar
    34   18   33 1
    35   19   20 ar
    36   19   22 1
    37   20   21 ar
    38   20   34 1
@<TRIPOS>MOLECULE
CHEMBL264184
   39    42     0     0     0
SMALL
USER_CHARGES

@<TRIPOS>ATOM
      1 C1         -0.0772    1.0569   -0.1707 C.ar      1 <0>        -0.0513
      2 C2          1.0601    1.8418   -0.1360 C.ar      1 <0>        -0.1274
      3 C3          2.3084    1.2488   -0.1047 C.ar      1 <0>        -0.0125
      4 C4          2.4194   -0.1291   -0.1076 C.ar      1 <0>        -0.6641
      5 C5          1.2819   -0.9140   -0.1414 C.ar      1 <0>        -0.0358
      6 C6          0.0337   -0.3210   -0.1742 C.ar      1 <0>        -0.1347
      7 S1          4.0105   -0.8850   -0.0688 S.o2      1 <0>         2.5957
      8 O1          3.8579   -2.1818   -0.6294 O.2       1 <0>        -0.9475
      9 O2          4.9257    0.0681   -0.5917 O.2       1 <0>        -0.9034
     10 C7          4.4366   -1.1156    1.6253 C.2       1 <0>        -0.6359
     11 C8          5.2828   -0.2802    2.3948 C.ar      1 <0>        -0.0354
     12 C9          5.9969    0.8907    2.1092 C.ar      1 <0>        -0.0676
     13 C10         6.7462    1.4839    3.0844 C.ar      1 <0>        -0.0329
     14 C11         6.8080    0.9360    4.3607 C.ar      1 <0>        -0.0592
     15 C12         6.1152   -0.2142    4.6646 C.ar      1 <0>        -0.1062
     16 C13         5.3437   -0.8365    3.6870 C.ar      1 <0>         0.1201
     17 N1          4.5588   -1.9661    3.6851 N.pl3     1 <0>        -0.5336
     18 H1          4.4128   -2.5536    4.4430 H         1 <0>         0.4356
     19 C14         4.0079   -2.1227    2.4287 C.2       1 <0>         0.1296
     20 C15         3.1026   -3.2109    2.0235 C.cat     1 <0>         0.5518
     21 N2          3.3772   -4.0376    1.0243 N.pl3     1 <0>        -0.5772
     22 C16         2.2773   -5.0036    0.8784 C.3       1 <0>         0.0531
     23 C17         1.2878   -4.5935    1.9876 C.3       1 <0>         0.0582
     24 N3          1.9488   -3.4477    2.6316 N.pl3     1 <0>        -0.6279
     25 Cl1         7.6300    2.9348    2.7273 Cl        1 <0>        -0.0357
     26 H2         -1.0526    1.5201   -0.1907 H         1 <0>         0.1402
     27 H3          0.9735    2.9183   -0.1338 H         1 <0>         0.1436
     28 H4          3.1971    1.8620   -0.0783 H         1 <0>         0.1480
     29 H5          1.3686   -1.9905   -0.1440 H         1 <0>         0.1271
     30 H6         -0.8549   -0.9342   -0.2009 H         1 <0>         0.1377
     31 H7          5.9551    1.3228    1.1203 H         1 <0>         0.1648
     32 H8          7.4055    1.4171    5.1209 H         1 <0>         0.1565
     33 H9          6.1698   -0.6324    5.6588 H         1 <0>         0.1484
     34 H10         1.8130   -4.9110   -0.1035 H         1 <0>         0.1398
     35 H11         2.6354   -6.0203    1.0403 H         1 <0>         0.1380
     36 H12         0.3311   -4.2968    1.5578 H         1 <0>         0.1339
     37 H13         1.1535   -5.4060    2.7016 H         1 <0>         0.1334
     38 H14         1.5951   -2.9438    3.3811 H         1 <0>         0.4608
     39 H15         4.1768   -4.0097    0.4759 H         1 <0>         0.4720
@<TRIPOS>BOND
     1    1    6 ar
     2    1    2 ar
     3    1   26 1
     4    2    3 ar
     5    2   27 1
     6    3    4 ar
     7    3   28 1
     8    4    5 ar
     9    4    7 1
    10    5    6 ar
    11    5   29 1
    12    6   30 1
    13    7    8 2
    14    7    9 2
    15    7   10 1
    16   10   19 2
    17   10   11 1
    18   11   16 ar
    19   11   12 ar
    20   12   13 ar
    21   12   31 1
    22   13   14 ar
    23   13   25 1
    24   14   15 ar
    25   14   32 1
    26   15   16 ar
    27   15   33 1
    28   16   17 1
    29   17   18 1
    30   17   19 1
    31   19   20 1
    32   20   24 1
    33   20   21 2
    34   21   22 1
    35   21   39 1
    36   22   23 1
    37   22   34 1
    38   22   35 1
    39   23   24 1
    40   23   36 1
    41   23   37 1
    42   24   38 1
@<TRIPOS>MOLECULE
CHEMBL110091
   43    46     0     0     0
SMALL
USER_CHARGES

@<TRIPOS>ATOM
      1 C1         -0.0095    1.3764    0.0118 C.2       1 <0>        -0.1893
      2 C2          1.3157    1.8221    0.0033 C.2       1 <0>        -0.0809
      3 C3          2.1180    0.7021   -0.0127 C.2       1 <0>        -0.0728
      4 C4          3.5707    0.5208   -0.0269 C.2       1 <0>         0.5885
      5 O1          4.3088    1.4891   -0.0256 O.2       1 <0>        -0.4975
      6 N1          4.0862   -0.7245   -0.0408 N.am      1 <0>        -0.5376
      7 C5          3.2462   -1.8381   -0.0419 C.ar      1 <0>         0.1684
      8 C6          3.7958   -3.1146   -0.0563 C.ar      1 <0>        -0.1308
      9 C7          2.9708   -4.2226   -0.0576 C.ar      1 <0>        -0.0054
     10 C8          1.5946   -4.0669   -0.0441 C.ar      1 <0>        -0.1059
     11 C9          1.0394   -2.8028   -0.0292 C.ar      1 <0>        -0.0839
     12 C10         1.8607   -1.6834   -0.0283 C.ar      1 <0>         0.0993
     13 N2          1.2940   -0.4041   -0.0140 N.pl3     1 <0>        -0.3750
     14 C11         0.0061    0.0211    0.0010 C.2       1 <0>         0.0337
     15 Cl1         3.6612   -5.8152   -0.0767 Cl        1 <0>        -0.0459
     16 C12         5.5394   -0.9098   -0.0555 C.3       1 <0>         0.0906
     17 C13         6.0584   -0.9851    1.3818 C.3       1 <0>         0.1092
     18 N3          7.5115   -1.1704    1.3672 N.pl3     1 <0>        -0.6806
     19 C14         8.1906   -1.2644    2.5276 C.2       1 <0>         0.5223
     20 S1          7.3550   -1.1671    4.0187 S.2       1 <0>        -0.4908
     21 N4          9.5275   -1.4349    2.5142 N.pl3     1 <0>        -0.6166
     22 C15        10.2435   -1.4232    3.7098 C.ar      1 <0>         0.3534
     23 C16        11.6321   -1.4922    3.6817 C.ar      1 <0>        -0.1916
     24 C17        12.3308   -1.4798    4.8756 C.ar      1 <0>        -0.0241
     25 C18        11.6135   -1.3984    6.0625 C.ar      1 <0>        -0.1679
     26 C19        10.2344   -1.3328    6.0156 C.ar      1 <0>         0.1562
     27 N5          9.5957   -1.3411    4.8611 N.ar      1 <0>        -0.4036
     28 Br1        12.5151   -1.3783    7.7245 Br        1 <0>        -0.0371
     29 H1         -0.8901    2.0016    0.0287 H         1 <0>         0.1590
     30 H2          1.6476    2.8498    0.0081 H         1 <0>         0.1573
     31 H3          4.8684   -3.2403   -0.0669 H         1 <0>         0.1501
     32 H4          0.9541   -4.9365   -0.0455 H         1 <0>         0.1508
     33 H5         -0.0341   -2.6848   -0.0191 H         1 <0>         0.1505
     34 H6         -0.8654   -0.6168    0.0042 H         1 <0>         0.1776
     35 H7          5.7824   -1.8348   -0.5784 H         1 <0>         0.0994
     36 H8          6.0077   -0.0692   -0.5673 H         1 <0>         0.1099
     37 H9          5.8153   -0.0601    1.9048 H         1 <0>         0.0988
     38 H10         5.5900   -1.8258    1.8937 H         1 <0>         0.0949
     39 H11         7.9850   -1.2255    0.5224 H         1 <0>         0.3975
     40 H12         9.9913   -1.5657    1.6723 H         1 <0>         0.4107
     41 H13        12.1579   -1.5551    2.7405 H         1 <0>         0.1417
     42 H14        13.4095   -1.5326    4.8847 H         1 <0>         0.1487
     43 H15         9.6721   -1.2694    6.9355 H         1 <0>         0.1688
@<TRIPOS>BOND
     1    1   14 2
     2    1    2 1
     3    1   29 1
     4    2    3 2
     5    2   30 1
     6    3   13 1
     7    3    4 1
     8    4    5 2
     9    4    6 am
    10    6    7 1
    11    6   16 1
    12    7   12 ar
    13    7    8 ar
    14    8    9 ar
    15    8   31 1
    16    9   10 ar
    17    9   15 1
    18   10   11 ar
    19   10   32 1
    20   11   12 ar
    21   11   33 1
    22   12   13 1
    23   13   14 1
    24   14   34 1
    25   16   17 1
    26   16   35 1
    27   16   36 1
    28   17   18 1
    29   17   37 1
    30   17   38 1
    31   18   19 1
    32   18   39 1
    33   19   20 2
    34   19   21 1
    35   21   22 1
    36   21   40 1
    37   22   27 ar
    38   22   23 ar
    39   23   24 ar
    40   23   41 1
    41   24   25 ar
    42   24   42 1
    43   25   26 ar
    44   25   28 1
    45   26   27 ar
    46   26   43 1
@<TRIPOS>MOLECULE
CHEMBL338099
   54    57     0     0     0
SMALL
USER_CHARGES

@<TRIPOS>ATOM
      1 C1         -0.0184    1.5028    0.0103 C.3       1 <0>        -0.0745
      2 C2          0.0021   -0.0041    0.0020 C.2       1 <0>         0.0810
      3 C3          0.0081   -0.8159   -1.1155 C.2       1 <0>        -0.0937
      4 C4         -0.0013   -0.5737   -2.5019 C.2       1 <0>         0.0458
      5 C5          0.0097   -1.6311   -3.3564 C.2       1 <0>        -0.2280
      6 C6          0.0303   -2.9463   -2.8525 C.2       1 <0>         0.4010
      7 N1          0.0387   -3.1771   -1.5633 N.2       1 <0>        -0.2938
      8 N2          0.0284   -2.1175   -0.6508 N.pl3     1 <0>        -0.2587
      9 C7          0.0338   -2.0543    0.6930 C.2       1 <0>         0.2588
     10 N3          0.0235   -0.7987    1.0712 N.2       1 <0>        -0.4551
     11 C8          0.0539   -3.2423    1.6200 C.3       1 <0>        -0.0362
     12 C9          1.5030   -3.6252    1.9270 C.3       1 <0>        -0.1111
     13 C10         1.5234   -4.8313    2.8682 C.3       1 <0>        -0.1180
     14 C11         2.9725   -5.2142    3.1752 C.3       1 <0>        -0.1191
     15 C12         2.9929   -6.4203    4.1164 C.3       1 <0>        -0.1115
     16 C13         4.4420   -6.8033    4.4234 C.3       1 <0>        -0.1667
     17 C14         4.4621   -7.9912    5.3504 C.2       1 <0>         0.3951
     18 O1          3.4202   -8.4830    5.7282 O.2       1 <0>        -0.4501
     19 C15         5.7463   -8.5544    5.7971 C.ar      1 <0>        -0.1732
     20 C16         6.9501   -7.9864    5.3681 C.ar      1 <0>        -0.0738
     21 C17         8.1492   -8.5195    5.7915 C.ar      1 <0>        -0.1335
     22 C18         8.1634   -9.6139    6.6387 C.ar      1 <0>        -0.0880
     23 C19         6.9763  -10.1819    7.0672 C.ar      1 <0>        -0.1324
     24 C20         5.7691   -9.6568    6.6574 C.ar      1 <0>        -0.0626
     25 N4          0.0414   -4.0241   -3.7441 N.pl3     1 <0>        -0.4106
     26 C21         0.0560   -5.3555   -3.4142 C.2       1 <0>        -0.0319
     27 C22         0.0628   -6.0437   -4.5712 C.2       1 <0>        -0.0160
     28 N5          0.0527   -5.1630   -5.5830 N.2       1 <0>        -0.4686
     29 C23         0.0340   -3.9505   -5.1012 C.2       1 <0>         0.2072
     30 H1          1.0042    1.8801    0.0026 H         1 <0>         0.0803
     31 H2         -0.5455    1.8639   -0.8728 H         1 <0>         0.0760
     32 H3         -0.5286    1.8543    0.9071 H         1 <0>         0.0821
     33 H4         -0.0175    0.4373   -2.8814 H         1 <0>         0.1676
     34 H5          0.0023   -1.4624   -4.4231 H         1 <0>         0.1576
     35 H6         -0.4591   -2.9880    2.5476 H         1 <0>         0.1015
     36 H7         -0.4511   -4.0830    1.1443 H         1 <0>         0.0869
     37 H8          2.0159   -3.8795    0.9995 H         1 <0>         0.0605
     38 H9          2.0080   -2.7845    2.4028 H         1 <0>         0.0706
     39 H10         1.0105   -4.5770    3.7958 H         1 <0>         0.0681
     40 H11         1.0184   -5.6720    2.3924 H         1 <0>         0.0651
     41 H12         3.4854   -5.4685    2.2476 H         1 <0>         0.0620
     42 H13         3.4775   -4.3735    3.6510 H         1 <0>         0.0642
     43 H14         2.4800   -6.1661    5.0439 H         1 <0>         0.0697
     44 H15         2.4879   -7.2610    3.6406 H         1 <0>         0.0688
     45 H16         4.9549   -7.0575    3.4958 H         1 <0>         0.0992
     46 H17         4.9470   -5.9626    4.8991 H         1 <0>         0.0998
     47 H18         6.9406   -7.1326    4.7068 H         1 <0>         0.1321
     48 H19         9.0797   -8.0822    5.4608 H         1 <0>         0.1299
     49 H20         9.1058  -10.0269    6.9668 H         1 <0>         0.1281
     50 H21         6.9957  -11.0360    7.7280 H         1 <0>         0.1298
     51 H22         4.8435  -10.0984    6.9962 H         1 <0>         0.1333
     52 H23         0.0613   -5.7716   -2.4176 H         1 <0>         0.1850
     53 H24         0.0743   -7.1193   -4.6680 H         1 <0>         0.1824
     54 H25         0.0179   -3.0409   -5.6833 H         1 <0>         0.2177
@<TRIPOS>BOND
     1    1    2 1
     2    1   30 1
     3    1   31 1
     4    1   32 1
     5    2   10 1
     6    2    3 2
     7    3    8 1
     8    3    4 1
     9    4    5 2
    10    4   33 1
    11    5    6 1
    12    5   34 1
    13    6    7 2
    14    6   25 1
    15    7    8 1
    16    8    9 1
    17    9   10 2
    18    9   11 1
    19   11   12 1
    20   11   35 1
    21   11   36 1
    22   12   13 1
    23   12   37 1
    24   12   38 1
    25   13   14 1
    26   13   39 1
    27   13   40 1
    28   14   15 1
    29   14   41 1
    30   14   42 1
    31   15   16 1
    32   15   43 1
    33   15   44 1
    34   16   17 1
    35   16   45 1
    36   16   46 1
    37   17   18 2
    38   17   19 1
    39   19   24 ar
    40   19   20 ar
    41   20   21 ar
    42   20   47 1
    43   21   22 ar
    44   21   48 1
    45   22   23 ar
    46   22   49 1
    47   23   24 ar
    48   23   50 1
    49   24   51 1
    50   25   29 1
    51   25   26 1
    52   26   27 2
    53   26   52 1
    54   27   28 1
    55   27   53 1
    56   28   29 2
    57   29   54 1
@<TRIPOS>MOLECULE
CHEMBL330180
   48    52     0     0     0
SMALL
USER_CHARGES

@<TRIPOS>ATOM
      1 C1         -0.0187    1.5258    0.0104 C.3       1 <0>        -0.1714
      2 C2          0.0021   -0.0041    0.0020 C.3       1 <0>         0.1352
      3 N1          0.7106   -0.4894    1.1889 N.pl3     1 <0>        -0.5771
      4 C3          2.0889   -0.7000    1.1500 C.ar      1 <0>         0.3804
      5 C4          2.9401    0.0079    1.9951 C.ar      1 <0>         0.0973
      6 C5          4.3025   -0.2729    1.9669 C.ar      1 <0>        -0.0728
      7 C6          4.7668   -1.2270    1.0728 C.ar      1 <0>        -0.1351
      8 C7          3.8684   -1.8665    0.2413 C.ar      1 <0>         0.1839
      9 N2          2.5782   -1.5926    0.3004 N.ar      1 <0>        -0.4679
     10 Cl1         4.4430   -3.0451   -0.8965 Cl        1 <0>        -0.0155
     11 N3          2.4733    1.0232    2.8270 N.am      1 <0>        -0.5371
     12 C8          1.3456    1.0257    3.5224 C.2       1 <0>         0.5760
     13 O1          1.1189    2.0028    4.2094 O.2       1 <0>        -0.5153
     14 C9          0.3474   -0.0481    3.5345 C.ar      1 <0>        -0.1965
     15 C10         0.0203   -0.7384    2.3627 C.ar      1 <0>         0.4224
     16 N4         -0.9437   -1.6476    2.3792 N.ar      1 <0>        -0.4925
     17 C11        -1.5843   -1.9626    3.4880 C.ar      1 <0>         0.1766
     18 C12        -1.2762   -1.3540    4.6909 C.ar      1 <0>        -0.1542
     19 C13        -0.3038   -0.3876    4.7255 C.ar      1 <0>         0.0190
     20 C14        -1.9997   -1.7523    5.9515 C.3       1 <0>        -0.0449
     21 S1         -1.1054   -3.1083    6.7591 S.3       1 <0>        -0.0530
     22 C15        -2.0638   -3.4544    8.1966 C.ar      1 <0>         0.2027
     23 C16        -1.6764   -4.4569    9.0890 C.ar      1 <0>        -0.0544
     24 N5         -0.6306   -5.3522    9.1623 N.pl3     1 <0>        -0.5737
     25 C17        -0.8078   -6.0819   10.2867 C.2       1 <0>         0.3117
     26 N6         -1.8885   -5.6955   10.9059 N.2       1 <0>        -0.4869
     27 C18        -2.4732   -4.6952   10.2203 C.ar      1 <0>         0.3082
     28 N7         -3.5716   -3.9535   10.3989 N.ar      1 <0>        -0.4829
     29 C19        -3.8972   -3.0207    9.5317 C.ar      1 <0>         0.3168
     30 N8         -3.1703   -2.7627    8.4596 N.ar      1 <0>        -0.5193
     31 H1          0.0960   -5.4422    8.5260 H         1 <0>         0.4331
     32 C20         3.3189    2.2136    2.9457 C.3       1 <0>         0.0637
     33 H2          1.0039    1.9031    0.0027 H         1 <0>         0.0546
     34 H3         -0.5459    1.8868   -0.8726 H         1 <0>         0.0748
     35 H4         -0.5289    1.8773    0.9072 H         1 <0>         0.0552
     36 H5         -1.0205   -0.3814    0.0098 H         1 <0>         0.0868
     37 H6          0.5123   -0.3556   -0.8948 H         1 <0>         0.0861
     38 H7          4.9847    0.2411    2.6277 H         1 <0>         0.1600
     39 H8          5.8188   -1.4671    1.0279 H         1 <0>         0.1593
     40 H9         -2.3634   -2.7098    3.4560 H         1 <0>         0.1718
     41 H10        -0.0517    0.1043    5.6534 H         1 <0>         0.1521
     42 H11        -2.0508   -0.8980    6.6264 H         1 <0>         0.1137
     43 H12        -3.0091   -2.0800    5.7030 H         1 <0>         0.1160
     44 H13        -0.1504   -6.8701   10.6229 H         1 <0>         0.2354
     45 H14        -4.7909   -2.4397    9.7052 H         1 <0>         0.2099
     46 H15         3.0390    2.9361    2.1790 H         1 <0>         0.0704
     47 H16         3.1832    2.6588    3.9313 H         1 <0>         0.0961
     48 H17         4.3637    1.9317    2.8151 H         1 <0>         0.0816
@<TRIPOS>BOND
     1    1    2 1
     2    1   33 1
     3    1   34 1
     4    1   35 1
     5    2    3 1
     6    2   36 1
     7    2   37 1
     8    3   15 1
     9    3    4 1
    10    4    9 ar
    11    4    5 ar
    12    5    6 ar
    13    5   11 1
    14    6    7 ar
    15    6   38 1
    16    7    8 ar
    17    7   39 1
    18    8    9 ar
    19    8   10 1
    20   11   12 am
    21   11   32 1
    22   12   13 2
    23   12   14 1
    24   14   19 ar
    25   14   15 ar
    26   15   16 ar
    27   16   17 ar
    28   17   18 ar
    29   17   40 1
    30   18   19 ar
    31   18   20 1
    32   19   41 1
    33   20   21 1
    34   20   42 1
    35   20   43 1
    36   21   22 1
    37   22   30 ar
    38   22   23 ar
    39   23   27 ar
    40   23   24 1
    41   24   25 1
    42   24   31 1
    43   25   44 1
    44   25   26 2
    45   26   27 1
    46   27   28 ar
    47   28   29 ar
    48   29   45 1
    49   29   30 ar
    50   32   46 1
    51   32   47 1
    52   32   48 1
@<TRIPOS>MOLECULE
CHEMBL330180__1
   47    51     0     0     0
SMALL
USER_CHARGES

@<TRIPOS>ATOM
      1 C1         -0.0187    1.5258    0.0104 C.3       1 <0>        -0.1706
      2 C2          0.0021   -0.0041    0.0020 C.3       1 <0>         0.1370
      3 N1          0.6878   -0.4765   -1.2033 N.pl3     1 <0>        -0.5766
      4 C3         -0.0294   -0.7093   -2.3768 C.ar      1 <0>         0.3840
      5 C4          0.2592    0.0020   -3.5389 C.ar      1 <0>         0.1003
      6 C5         -0.4390   -0.3005   -4.7037 C.ar      1 <0>        -0.0742
      7 C6         -1.4212   -1.2794   -4.6556 C.ar      1 <0>        -0.1374
      8 C7         -1.6761   -1.9213   -3.4595 C.ar      1 <0>         0.1831
      9 N2         -0.9871   -1.6263   -2.3726 N.ar      1 <0>        -0.4689
     10 Cl1        -2.9188   -3.1312   -3.3841 Cl        1 <0>        -0.0215
     11 N3          1.1873    1.0408   -3.5541 N.am      1 <0>        -0.5389
     12 C8          2.3528    1.0748   -2.9252 C.2       1 <0>         0.5790
     13 O1          3.0365    2.0688   -3.0757 O.2       1 <0>        -0.5174
     14 C9          2.8892    0.0171   -2.0630 C.ar      1 <0>        -0.1974
     15 C10         2.0554   -0.6913   -1.1915 C.ar      1 <0>         0.4068
     16 N4          2.5741   -1.5848   -0.3616 N.ar      1 <0>        -0.4935
     17 C11         3.8622   -1.8676   -0.3601 C.ar      1 <0>         0.1705
     18 C12         4.7345   -1.2399   -1.2304 C.ar      1 <0>        -0.1288
     19 C13         4.2542   -0.2882   -2.0933 C.ar      1 <0>         0.0131
     20 C14         6.1974   -1.6016   -1.2327 C.3       1 <0>        -0.0655
     21 S1          6.4839   -2.9550   -2.4062 S.3       1 <0>        -0.0531
     22 C15         8.2161   -3.2572   -2.2937 C.ar      1 <0>         0.1949
     23 C16         8.8249   -4.2539   -3.0767 C.ar      1 <0>        -0.0630
     24 N5          8.3835   -5.1438   -3.9975 N.2       1 <0>        -0.5547
     25 C17         9.3852   -5.8548   -4.4278 C.2       1 <0>         0.1908
     26 N6         10.5342   -5.4634   -3.8074 N.2       1 <0>        -0.5793
     27 C18        10.2097   -4.4481   -2.9436 C.ar      1 <0>         0.2269
     28 N7         10.8895   -3.6890   -2.0897 N.ar      1 <0>        -0.5034
     29 C19        10.2774   -2.7670   -1.3769 C.ar      1 <0>         0.2563
     30 N8          8.9791   -2.5445   -1.4704 N.ar      1 <0>        -0.5607
     31 C20         0.8376    2.2201   -4.3500 C.3       1 <0>         0.0653
     32 H1          1.0039    1.9031    0.0027 H         1 <0>         0.0559
     33 H2         -0.5459    1.8868   -0.8726 H         1 <0>         0.0530
     34 H3         -0.5289    1.8773    0.9072 H         1 <0>         0.0714
     35 H4          0.5293   -0.3651    0.8851 H         1 <0>         0.0859
     36 H5         -1.0205   -0.3814    0.0098 H         1 <0>         0.0829
     37 H6         -0.2206    0.2159   -5.6268 H         1 <0>         0.1588
     38 H7         -1.9797   -1.5367   -5.5434 H         1 <0>         0.1571
     39 H8          4.2426   -2.6030    0.3332 H         1 <0>         0.1716
     40 H9          4.9193    0.2181   -2.7772 H         1 <0>         0.1512
     41 H10         6.7859   -0.7333   -1.5288 H         1 <0>         0.1028
     42 H11         6.4950   -1.9185   -0.2331 H         1 <0>         0.1050
     43 H12         9.3161   -6.6394   -5.1667 H         1 <0>         0.1801
     44 H13        10.8594   -2.1677   -0.6926 H         1 <0>         0.1787
     45 H14         0.2956    2.9313   -3.7267 H         1 <0>         0.0676
     46 H15         1.7476    2.6870   -4.7267 H         1 <0>         0.0953
     47 H16         0.2095    1.9193   -5.1885 H         1 <0>         0.0797
@<TRIPOS>BOND
     1    1    2 1
     2    1   32 1
     3    1   33 1
     4    1   34 1
     5    2    3 1
     6    2   35 1
     7    2   36 1
     8    3   15 1
     9    3    4 1
    10    4    9 ar
    11    4    5 ar
    12    5    6 ar
    13    5   11 1
    14    6    7 ar
    15    6   37 1
    16    7    8 ar
    17    7   38 1
    18    8    9 ar
    19    8   10 1
    20   11   12 am
    21   11   31 1
    22   12   13 2
    23   12   14 1
    24   14   19 ar
    25   14   15 ar
    26   15   16 ar
    27   16   17 ar
    28   17   18 ar
    29   17   39 1
    30   18   19 ar
    31   18   20 1
    32   19   40 1
    33   20   21 1
    34   20   41 1
    35   20   42 1
    36   21   22 1
    37   22   30 ar
    38   22   23 ar
    39   23   27 ar
    40   23   24 1
    41   24   25 2
    42   25   43 1
    43   25   26 1
    44   26   27 1
    45   27   28 ar
    46   28   29 ar
    47   29   44 1
    48   29   30 ar
    49   31   45 1
    50   31   46 1
    51   31   47 1
@<TRIPOS>MOLECULE
CHEMBL330180__2
   48    52     0     0     0
SMALL
USER_CHARGES

@<TRIPOS>ATOM
      1 C1         -0.0187    1.5258    0.0104 C.3       1 <0>        -0.1713
      2 C2          0.0021   -0.0041    0.0020 C.3       1 <0>         0.1355
      3 N1         -1.3723   -0.5112    0.0124 N.pl3     1 <0>        -0.5771
      4 C3         -2.0241   -0.7562    1.2210 C.ar      1 <0>         0.3808
      5 C4         -3.1924   -0.0728    1.5496 C.ar      1 <0>         0.0976
      6 C5         -3.8444   -0.3876    2.7377 C.ar      1 <0>        -0.0727
      7 C6         -3.2873   -1.3499    3.5676 C.ar      1 <0>        -0.1353
      8 C7         -2.1082   -1.9638    3.1927 C.ar      1 <0>         0.1840
      9 N2         -1.5189   -1.6578    2.0516 N.ar      1 <0>        -0.4680
     10 Cl1        -1.3916   -3.1524    4.2354 Cl        1 <0>        -0.0163
     11 N3         -3.6954    0.9509    0.7499 N.am      1 <0>        -0.5372
     12 C8         -3.7342    0.9793   -0.5741 C.2       1 <0>         0.5767
     13 O1         -4.2310    1.9594   -1.0944 O.2       1 <0>        -0.5164
     14 C9         -3.2291   -0.0691   -1.4660 C.ar      1 <0>        -0.1964
     15 C10        -2.0401   -0.7469   -1.1771 C.ar      1 <0>         0.4203
     16 N4         -1.5584   -1.6316   -2.0382 N.ar      1 <0>        -0.4925
     17 C11        -2.1937   -1.9343   -3.1534 C.ar      1 <0>         0.1755
     18 C12        -3.3989   -1.3379   -3.4760 C.ar      1 <0>        -0.1495
     19 C13        -3.9299   -0.3963   -2.6320 C.ar      1 <0>         0.0179
     20 C14        -4.1228   -1.7223   -4.7406 C.3       1 <0>        -0.0665
     21 S1         -5.2481   -3.1031   -4.3972 S.3       1 <0>         0.0070
     22 C15        -6.0087   -3.4300   -5.9526 C.ar      1 <0>         0.2242
     23 C16        -6.9659   -4.4516   -6.0849 C.ar      1 <0>        -0.0368
     24 N5         -7.5202   -5.3527   -5.2392 N.2       1 <0>        -0.4624
     25 C17        -8.3754   -6.0877   -5.8890 C.2       1 <0>         0.2788
     26 N6         -8.4223   -5.7019   -7.1956 N.pl3     1 <0>        -0.5800
     27 C18        -7.5378   -4.6646   -7.3501 C.ar      1 <0>         0.2875
     28 N7         -7.1572   -3.8992   -8.3684 N.ar      1 <0>        -0.5221
     29 C19        -6.2573   -2.9537   -8.1978 C.ar      1 <0>         0.3345
     30 N8         -5.6951   -2.7130   -7.0275 N.ar      1 <0>        -0.5338
     31 H1         -8.9789   -6.0896   -7.8890 H         1 <0>         0.4349
     32 C20        -4.2393    2.1194    1.4464 C.3       1 <0>         0.0640
     33 H2          1.0039    1.9031    0.0027 H         1 <0>         0.0741
     34 H3         -0.5459    1.8868   -0.8726 H         1 <0>         0.0552
     35 H4         -0.5289    1.8773    0.9072 H         1 <0>         0.0544
     36 H5          0.5123   -0.3556   -0.8948 H         1 <0>         0.0866
     37 H6          0.5293   -0.3651    0.8851 H         1 <0>         0.0856
     38 H7         -4.7657    0.1068    3.0083 H         1 <0>         0.1598
     39 H8         -3.7704   -1.6162    4.4961 H         1 <0>         0.1590
     40 H9         -1.7650   -2.6616   -3.8270 H         1 <0>         0.1717
     41 H10        -4.8671    0.0859   -2.8678 H         1 <0>         0.1520
     42 H11        -4.6951   -0.8693   -5.1052 H         1 <0>         0.1118
     43 H12        -3.3981   -2.0237   -5.4969 H         1 <0>         0.1140
     44 H13        -8.9610   -6.8857   -5.4571 H         1 <0>         0.2336
     45 H14        -5.9707   -2.3500   -9.0461 H         1 <0>         0.2098
     46 H15        -3.4467    2.8513    1.6018 H         1 <0>         0.0698
     47 H16        -5.0320    2.5644    0.8450 H         1 <0>         0.0959
     48 H17        -4.6439    1.8117    2.4106 H         1 <0>         0.0814
@<TRIPOS>BOND
     1    1    2 1
     2    1   33 1
     3    1   34 1
     4    1   35 1
     5    2    3 1
     6    2   36 1
     7    2   37 1
     8    3   15 1
     9    3    4 1
    10    4    9 ar
    11    4    5 ar
    12    5    6 ar
    13    5   11 1
    14    6    7 ar
    15    6   38 1
    16    7    8 ar
    17    7   39 1
    18    8    9 ar
    19    8   10 1
    20   11   12 am
    21   11   32 1
    22   12   13 2
    23   12   14 1
    24   14   19 ar
    25   14   15 ar
    26   15   16 ar
    27   16   17 ar
    28   17   18 ar
    29   17   40 1
    30   18   19 ar
    31   18   20 1
    32   19   41 1
    33   20   21 1
    34   20   42 1
    35   20   43 1
    36   21   22 1
    37   22   30 ar
    38   22   23 ar
    39   23   27 ar
    40   23   24 1
    41   24   25 2
    42   25   44 1
    43   25   26 1
    44   26   31 1
    45   26   27 1
    46   27   28 ar
    47   28   29 ar
    48   29   45 1
    49   29   30 ar
    50   32   46 1
    51   32   47 1
    52   32   48 1
@<TRIPOS>MOLECULE
CHEMBL53043
   34    36     0     0     0
SMALL
USER_CHARGES

@<TRIPOS>ATOM
      1 C1         -0.0164    1.3567    0.0095 C.ar      1 <0>        -0.0908
      2 C2          1.1686    2.0905    0.0021 C.ar      1 <0>        -0.1227
      3 C3          2.3785    1.4675   -0.0131 C.ar      1 <0>        -0.0862
      4 C4          2.4375    0.0634   -0.0211 C.ar      1 <0>        -0.0777
      5 C5          3.6681   -0.6153   -0.0364 C.ar      1 <0>         0.0111
      6 C6          3.6865   -1.9761   -0.0434 C.ar      1 <0>        -0.6580
      7 C7          2.5015   -2.7098   -0.0357 C.ar      1 <0>        -0.0430
      8 C8          1.2917   -2.0868   -0.0209 C.ar      1 <0>        -0.1156
      9 C9          1.2327   -0.6827   -0.0133 C.ar      1 <0>        -0.0105
     10 C10         0.0021   -0.0041    0.0020 C.ar      1 <0>        -0.1207
     11 S1          5.2315   -2.8230   -0.0631 S.o2      1 <0>         2.5700
     12 O1          4.9835   -4.1075   -0.6179 O.2       1 <0>        -0.9239
     13 O2          6.1807   -1.9234   -0.6189 O.2       1 <0>        -0.9255
     14 C11         5.7051   -3.0818    1.6142 C.ar      1 <0>        -0.5702
     15 C12         5.7971   -4.3625    2.1155 C.ar      1 <0>        -0.0728
     16 C13         6.1684   -4.5733    3.4333 C.ar      1 <0>        -0.0574
     17 C14         6.4505   -3.5039    4.2597 C.ar      1 <0>        -0.1424
     18 C15         6.3637   -2.2066    3.7728 C.ar      1 <0>         0.2554
     19 C16         5.9933   -1.9896    2.4360 C.ar      1 <0>        -0.0279
     20 C17         5.9058   -0.6567    1.9199 C.1       1 <0>         0.2256
     21 N1          5.8364    0.4006    1.5104 N.1       1 <0>        -0.3776
     22 N2          6.6473   -1.1281    4.6032 N.pl3     1 <0>        -0.8606
     23 H1         -0.9633    1.8757    0.0259 H         1 <0>         0.1296
     24 H2          1.1260    3.1696    0.0083 H         1 <0>         0.1296
     25 H3          3.2884    2.0491   -0.0194 H         1 <0>         0.1339
     26 H4          4.5943   -0.0599   -0.0428 H         1 <0>         0.1502
     27 H5          2.5441   -3.7890   -0.0419 H         1 <0>         0.1451
     28 H6          0.3816   -2.6684   -0.0154 H         1 <0>         0.1397
     29 H7         -0.9241   -0.5595    0.0082 H         1 <0>         0.1342
     30 H8          5.5783   -5.2061    1.4776 H         1 <0>         0.1561
     31 H9          6.2373   -5.5806    3.8168 H         1 <0>         0.1462
     32 H10         6.7385   -3.6767    5.2861 H         1 <0>         0.1436
     33 H11         6.9065   -1.2810    5.5253 H         1 <0>         0.4098
     34 H12         6.5859   -0.2228    4.2604 H         1 <0>         0.4035
@<TRIPOS>BOND
     1    1   10 ar
     2    1    2 ar
     3    1   23 1
     4    2    3 ar
     5    2   24 1
     6    3    4 ar
     7    3   25 1
     8    4    9 ar
     9    4    5 ar
    10    5    6 ar
    11    5   26 1
    12    6    7 ar
    13    6   11 1
    14    7    8 ar
    15    7   27 1
    16    8    9 ar
    17    8   28 1
    18    9   10 ar
    19   10   29 1
    20   11   12 2
    21   11   13 2
    22   11   14 1
    23   14   19 ar
    24   14   15 ar
    25   15   16 ar
    26   15   30 1
    27   16   17 ar
    28   16   31 1
    29   17   18 ar
    30   17   32 1
    31   18   19 ar
    32   18   22 1
    33   19   20 1
    34   20   21 3
    35   22   33 1
    36   22   34 1
@<TRIPOS>MOLECULE
CHEMBL148698
   24    25     0     0     0
SMALL
USER_CHARGES

@<TRIPOS>ATOM
      1 C1         -0.0162    1.3409    0.0094 C.2       1 <0>        -0.2194
      2 C2          1.3313    1.7689   -0.0012 C.2       1 <0>        -0.1720
      3 C3          2.0923    0.6599   -0.0144 C.2       1 <0>        -0.0532
      4 O1          1.2819   -0.4111   -0.0124 O.3       1 <0>        -0.1703
      5 C4          0.0021   -0.0041    0.0020 C.2       1 <0>        -0.0196
      6 C5          3.5989    0.6249   -0.0294 C.3       1 <0>         0.2122
      7 N1          4.1006    0.6065    1.3469 N.pl3     1 <0>        -0.6787
      8 C6          5.4277    0.5745    1.5799 C.2       1 <0>         0.5274
      9 S1          6.5271    0.5554    0.2677 S.2       1 <0>        -0.5043
     10 N2          5.8894    0.5575    2.8460 N.pl3     1 <0>        -0.5818
     11 C7          7.2574    0.5246    3.0863 C.2       1 <0>         0.2529
     12 N3          8.2409    0.5119    2.2125 N.2       1 <0>        -0.4550
     13 C8          9.5014    0.4801    2.6045 C.2       1 <0>         0.0515
     14 C9          9.7309    0.4614    3.9402 C.2       1 <0>        -0.2293
     15 S2          8.0591    0.4987    4.5659 S.3       1 <0>         0.1009
     16 H1         -0.8920    1.9726    0.0252 H         1 <0>         0.1537
     17 H2          1.6822    2.7903    0.0004 H         1 <0>         0.1534
     18 H3         -0.8653   -0.6475    0.0072 H         1 <0>         0.2079
     19 H4          3.9364   -0.2706   -0.5512 H         1 <0>         0.1074
     20 H5          3.9777    1.5089   -0.5424 H         1 <0>         0.1211
     21 H6          3.4778    0.6173    2.0904 H         1 <0>         0.3996
     22 H7          5.2665    0.5683    3.5896 H         1 <0>         0.4172
     23 H8         10.3134    0.4692    1.8925 H         1 <0>         0.1781
     24 H9         10.6672    0.4353    4.4779 H         1 <0>         0.2001
@<TRIPOS>BOND
     1    1    5 2
     2    1    2 1
     3    1   16 1
     4    2    3 2
     5    2   17 1
     6    3    4 1
     7    3    6 1
     8    4    5 1
     9    5   18 1
    10    6    7 1
    11    6   19 1
    12    6   20 1
    13    7    8 1
    14    7   21 1
    15    8    9 2
    16    8   10 1
    17   10   11 1
    18   10   22 1
    19   11   15 1
    20   11   12 2
    21   12   13 1
    22   13   14 2
    23   13   23 1
    24   14   15 1
    25   14   24 1
@<TRIPOS>MOLECULE
CHEMBL434122
   51    55     0     0     0
SMALL
USER_CHARGES

@<TRIPOS>ATOM
      1 C1         -0.0167    1.3781    0.0096 C.ar      1 <0>        -0.1204
      2 C2          1.1709    2.0855    0.0021 C.ar      1 <0>        -0.1182
      3 C3          2.3773    1.4107   -0.0130 C.ar      1 <0>        -0.1145
      4 C4          2.3960    0.0285   -0.0201 C.ar      1 <0>        -0.0869
      5 C5          1.2084   -0.6789   -0.0117 C.ar      1 <0>        -0.1143
      6 C6          0.0021   -0.0041    0.0020 C.ar      1 <0>        -0.1182
      7 C7          3.7112   -0.7071   -0.0376 C.3       1 <0>        -0.0777
      8 C8          4.1714   -0.9633    1.3989 C.3       1 <0>         0.0683
      9 O1          5.4184   -1.6609    1.3824 O.3       1 <0>        -0.3800
     10 C9          5.9393   -1.9511    2.6810 C.3       1 <0>         0.1052
     11 C10         7.2491   -2.6839    2.5446 C.ar      1 <0>        -0.0545
     12 C11         7.7727   -2.9712    1.2918 C.ar      1 <0>        -0.1312
     13 C12         8.9757   -3.6405    1.2005 C.ar      1 <0>         0.1115
     14 N1          9.6379   -3.9933    2.2859 N.ar      1 <0>        -0.4681
     15 C13         9.1806   -3.7321    3.5021 C.ar      1 <0>         0.3635
     16 C14         7.9610   -3.0811    3.6720 C.ar      1 <0>         0.0920
     17 N2          7.4130   -2.8617    4.9330 N.am      1 <0>        -0.6459
     18 C15         8.0619   -2.4921    6.0268 C.2       1 <0>         0.5808
     19 O2          7.4034   -2.3304    7.0359 O.2       1 <0>        -0.5233
     20 C16         9.5062   -2.2619    6.1249 C.ar      1 <0>        -0.1981
     21 C17         9.9964   -1.2037    6.8992 C.ar      1 <0>        -0.0028
     22 C18        11.3671   -1.0418    7.0000 C.ar      1 <0>        -0.1890
     23 C19        12.2062   -1.9245    6.3441 C.ar      1 <0>         0.1489
     24 N3         11.7236   -2.9063    5.6081 N.ar      1 <0>        -0.4943
     25 C20        10.4200   -3.0915    5.4583 C.ar      1 <0>         0.4149
     26 N4          9.9545   -4.0900    4.6064 N.pl3     1 <0>        -0.5551
     27 C21        10.2781   -5.4965    4.8577 C.3       1 <0>         0.1034
     28 C22        10.9544   -5.8393    6.1866 C.3       1 <0>        -0.1836
     29 C23        11.7572   -5.8872    4.8850 C.3       1 <0>        -0.1798
     30 H1         -0.9591    1.9053    0.0259 H         1 <0>         0.1226
     31 H2          1.1563    3.1654    0.0076 H         1 <0>         0.1233
     32 H3          3.3051    1.9634   -0.0196 H         1 <0>         0.1226
     33 H4          1.2231   -1.7588   -0.0176 H         1 <0>         0.1228
     34 H5         -0.9258   -0.5567    0.0082 H         1 <0>         0.1234
     35 H6          3.5884   -1.6586   -0.5549 H         1 <0>         0.0830
     36 H7          4.4573   -0.1052   -0.5563 H         1 <0>         0.0828
     37 H8          4.2941   -0.0118    1.9163 H         1 <0>         0.0543
     38 H9          3.4252   -1.5652    1.9176 H         1 <0>         0.0548
     39 H10         6.0988   -1.0201    3.2249 H         1 <0>         0.0727
     40 H11         5.2299   -2.5735    3.2263 H         1 <0>         0.0698
     41 H12         7.2441   -2.6743    0.3980 H         1 <0>         0.1562
     42 H13         9.3807   -3.8784    0.2280 H         1 <0>         0.1688
     43 H14         6.4558   -2.9929    5.0194 H         1 <0>         0.4107
     44 H15         9.3212   -0.5297    7.4054 H         1 <0>         0.1492
     45 H16        11.7783   -0.2332    7.5861 H         1 <0>         0.1495
     46 H17        13.2758   -1.8073    6.4364 H         1 <0>         0.1685
     47 H18         9.5737   -6.2212    4.4495 H         1 <0>         0.1282
     48 H19        11.1585   -5.0183    6.8740 H         1 <0>         0.0915
     49 H20        10.6948   -6.7897    6.6531 H         1 <0>         0.1035
     50 H21        12.0257   -6.8690    4.4952 H         1 <0>         0.0973
     51 H22        12.4895   -5.0977    4.7161 H         1 <0>         0.1121
@<TRIPOS>BOND
     1    1    6 ar
     2    1    2 ar
     3    1   30 1
     4    2    3 ar
     5    2   31 1
     6    3    4 ar
     7    3   32 1
     8    4    5 ar
     9    4    7 1
    10    5    6 ar
    11    5   33 1
    12    6   34 1
    13    7    8 1
    14    7   35 1
    15    7   36 1
    16    8    9 1
    17    8   37 1
    18    8   38 1
    19    9   10 1
    20   10   11 1
    21   10   39 1
    22   10   40 1
    23   11   16 ar
    24   11   12 ar
    25   12   13 ar
    26   12   41 1
    27   13   14 ar
    28   13   42 1
    29   14   15 ar
    30   15   26 1
    31   15   16 ar
    32   16   17 1
    33   17   18 am
    34   17   43 1
    35   18   19 2
    36   18   20 1
    37   20   25 ar
    38   20   21 ar
    39   21   22 ar
    40   21   44 1
    41   22   23 ar
    42   22   45 1
    43   23   24 ar
    44   23   46 1
    45   24   25 ar
    46   25   26 1
    47   26   27 1
    48   27   29 1
    49   27   28 1
    50   27   47 1
    51   28   29 1
    52   28   48 1
    53   28   49 1
    54   29   50 1
    55   29   51 1
@<TRIPOS>MOLECULE
CHEMBL30062
   46    49     0     0     0
SMALL
USER_CHARGES

@<TRIPOS>ATOM
      1 C1         -0.0187    1.5258    0.0104 C.3       1 <0>        -0.1485
      2 C2          0.0021   -0.0041    0.0020 C.3       1 <0>        -0.1202
      3 C3         -1.4333   -0.5336    0.0129 C.3       1 <0>         0.0043
      4 C4         -2.1022   -0.1302    1.2964 C.ar      1 <0>         0.1809
      5 C5         -1.5646   -0.5079    2.5233 C.ar      1 <0>        -0.1798
      6 C6         -2.2230   -0.1241    3.7006 C.ar      1 <0>        -0.0173
      7 C7         -3.3813    0.6242    3.5934 C.ar      1 <0>        -0.1788
      8 C8         -3.8484    0.9665    2.3373 C.ar      1 <0>         0.1310
      9 N1         -3.2100    0.5878    1.2483 N.ar      1 <0>        -0.4767
     10 C9         -0.3222   -1.2847    2.6101 C.2       1 <0>         0.5725
     11 O1          0.4598   -0.9793    3.4893 O.2       1 <0>        -0.5251
     12 N2          0.0233   -2.2848    1.8210 N.am      1 <0>        -0.5375
     13 C10        -0.7117   -2.8216    0.7748 C.ar      1 <0>         0.1021
     14 C11        -1.4118   -2.0308   -0.1190 C.ar      1 <0>         0.1307
     15 N3         -2.0849   -2.5830   -1.1156 N.ar      1 <0>        -0.4451
     16 C12        -2.1292   -3.8941   -1.2956 C.ar      1 <0>         0.1700
     17 C13        -1.4576   -4.7517   -0.4264 C.ar      1 <0>        -0.1367
     18 C14        -0.7394   -4.2119    0.6219 C.ar      1 <0>        -0.0893
     19 C15        -2.9005   -4.4547   -2.4317 C.ar      1 <0>        -0.0056
     20 C16        -3.4841   -3.6026   -3.3685 C.ar      1 <0>        -0.1334
     21 C17        -4.2021   -4.1258   -4.4250 C.ar      1 <0>        -0.0763
     22 C18        -4.3449   -5.4940   -4.5589 C.ar      1 <0>        -0.1839
     23 C19        -3.7668   -6.3510   -3.6301 C.ar      1 <0>         0.2121
     24 C20        -3.0389   -5.8334   -2.5687 C.ar      1 <0>        -0.1793
     25 N4         -3.9142   -7.7332   -3.7683 N.pl3     1 <0>        -0.8795
     26 C21         1.3296   -2.8958    2.0791 C.3       1 <0>         0.0529
     27 H1          1.0039    1.9031    0.0027 H         1 <0>         0.0617
     28 H2         -0.5459    1.8868   -0.8726 H         1 <0>         0.0633
     29 H3         -0.5289    1.8773    0.9072 H         1 <0>         0.0518
     30 H4          0.5123   -0.3556   -0.8948 H         1 <0>         0.0797
     31 H5          0.5293   -0.3651    0.8851 H         1 <0>         0.0669
     32 H6         -1.9818   -0.1057   -0.8262 H         1 <0>         0.1248
     33 H7         -1.8350   -0.4064    4.6681 H         1 <0>         0.1464
     34 H8         -3.9143    0.9369    4.4792 H         1 <0>         0.1476
     35 H9         -4.7508    1.5530    2.2475 H         1 <0>         0.1668
     36 H10        -1.4987   -5.8213   -0.5702 H         1 <0>         0.1464
     37 H11        -0.2083   -4.8515    1.3113 H         1 <0>         0.1464
     38 H12        -3.3746   -2.5330   -3.2672 H         1 <0>         0.1328
     39 H13        -4.6538   -3.4639   -5.1490 H         1 <0>         0.1263
     40 H14        -4.9077   -5.8982   -5.3874 H         1 <0>         0.1217
     41 H15        -2.5847   -6.4976   -1.8484 H         1 <0>         0.1237
     42 H16        -4.4201   -8.0950   -4.5126 H         1 <0>         0.3995
     43 H17        -3.5106   -8.3312   -3.1199 H         1 <0>         0.3980
     44 H18         1.8075   -2.3907    2.9185 H         1 <0>         0.1082
     45 H19         1.1964   -3.9509    2.3181 H         1 <0>         0.0715
     46 H20         1.9568   -2.8004    1.1928 H         1 <0>         0.0728
@<TRIPOS>BOND
     1    1    2 1
     2    1   27 1
     3    1   28 1
     4    1   29 1
     5    2    3 1
     6    2   30 1
     7    2   31 1
     8    3   14 1
     9    3    4 1
    10    3   32 1
    11    4    9 ar
    12    4    5 ar
    13    5    6 ar
    14    5   10 1
    15    6    7 ar
    16    6   33 1
    17    7    8 ar
    18    7   34 1
    19    8    9 ar
    20    8   35 1
    21   10   11 2
    22   10   12 am
    23   12   13 1
    24   12   26 1
    25   13   18 ar
    26   13   14 ar
    27   14   15 ar
    28   15   16 ar
    29   16   17 ar
    30   16   19 1
    31   17   18 ar
    32   17   36 1
    33   18   37 1
    34   19   24 ar
    35   19   20 ar
    36   20   21 ar
    37   20   38 1
    38   21   22 ar
    39   21   39 1
    40   22   23 ar
    41   22   40 1
    42   23   24 ar
    43   23   25 1
    44   24   41 1
    45   25   42 1
    46   25   43 1
    47   26   44 1
    48   26   45 1
    49   26   46 1
@<TRIPOS>MOLECULE
CHEMBL30062__1
   46    49     0     0     0
SMALL
USER_CHARGES

@<TRIPOS>ATOM
      1 C1         -0.0187    1.5258    0.0104 C.3       1 <0>        -0.1485
      2 C2          0.0021   -0.0041    0.0020 C.3       1 <0>        -0.1202
      3 C3         -1.4333   -0.5336    0.0129 C.3       1 <0>         0.0043
      4 C4         -2.1265   -0.1165   -1.2532 C.ar      1 <0>         0.1809
      5 C5         -1.6125   -0.4809   -2.4942 C.ar      1 <0>        -0.1798
      6 C6         -2.2933   -0.0846   -3.6544 C.ar      1 <0>        -0.0174
      7 C7         -3.4492    0.6624   -3.5172 C.ar      1 <0>        -0.1787
      8 C8         -3.8922    0.9911   -2.2488 C.ar      1 <0>         0.1309
      9 N1         -3.2332    0.6008   -1.1763 N.ar      1 <0>        -0.4767
     10 C9         -0.3721   -1.2567   -2.6130 C.2       1 <0>         0.5724
     11 O1          0.3930   -0.9417   -3.5036 O.2       1 <0>        -0.5251
     12 N2         -0.0112   -2.2646   -1.8409 N.am      1 <0>        -0.5375
     13 C10        -0.7261   -2.8126   -0.7866 C.ar      1 <0>         0.1022
     14 C11        -1.4095   -2.0321    0.1282 C.ar      1 <0>         0.1307
     15 N3         -2.0634   -2.5950    1.1315 N.ar      1 <0>        -0.4450
     16 C12        -2.1044   -3.9080    1.2982 C.ar      1 <0>         0.1700
     17 C13        -1.4496   -4.7562    0.4072 C.ar      1 <0>        -0.1366
     18 C14        -0.7503   -4.2044   -0.6475 C.ar      1 <0>        -0.0893
     19 C15        -2.8531   -4.4808    2.4433 C.ar      1 <0>        -0.0056
     20 C16        -3.6009   -3.6490    3.2759 C.ar      1 <0>        -0.1334
     21 C17        -4.2968   -4.1835    4.3414 C.ar      1 <0>        -0.0763
     22 C18        -4.2558   -5.5430    4.5871 C.ar      1 <0>        -0.1838
     23 C19        -3.5132   -6.3798    3.7627 C.ar      1 <0>         0.2121
     24 C20        -2.8157   -5.8513    2.6864 C.ar      1 <0>        -0.1792
     25 N4         -3.4735   -7.7532    4.0147 N.pl3     1 <0>        -0.8795
     26 C21         1.2902   -2.8721   -2.1300 C.3       1 <0>         0.0529
     27 H1          1.0039    1.9031    0.0027 H         1 <0>         0.0616
     28 H2         -0.5459    1.8868   -0.8726 H         1 <0>         0.0518
     29 H3         -0.5289    1.8773    0.9072 H         1 <0>         0.0633
     30 H4          0.5123   -0.3556   -0.8948 H         1 <0>         0.0670
     31 H5          0.5293   -0.3651    0.8851 H         1 <0>         0.0796
     32 H6         -1.9656   -0.1148    0.8669 H         1 <0>         0.1248
     33 H7         -1.9234   -0.3559   -4.6322 H         1 <0>         0.1464
     34 H8         -3.9986    0.9851   -4.3892 H         1 <0>         0.1476
     35 H9         -4.7922    1.5772   -2.1355 H         1 <0>         0.1668
     36 H10        -1.4875   -5.8273    0.5407 H         1 <0>         0.1465
     37 H11        -0.2321   -4.8366   -1.3533 H         1 <0>         0.1463
     38 H12        -3.6354   -2.5862    3.0871 H         1 <0>         0.1328
     39 H13        -4.8748   -3.5372    4.9854 H         1 <0>         0.1263
     40 H14        -4.8021   -5.9561    5.4222 H         1 <0>         0.1217
     41 H15        -2.2419   -6.5003    2.0415 H         1 <0>         0.1238
     42 H16        -3.9643   -8.1230    4.7652 H         1 <0>         0.3995
     43 H17        -2.9551   -8.3371    3.4392 H         1 <0>         0.3980
     44 H18         1.7519   -2.3581   -2.9730 H         1 <0>         0.1082
     45 H19         1.9340   -2.7854   -1.2547 H         1 <0>         0.0727
     46 H20         1.1529   -3.9248   -2.3772 H         1 <0>         0.0715
@<TRIPOS>BOND
     1    1    2 1
     2    1   27 1
     3    1   28 1
     4    1   29 1
     5    2    3 1
     6    2   30 1
     7    2   31 1
     8    3   14 1
     9    3    4 1
    10    3   32 1
    11    4    9 ar
    12    4    5 ar
    13    5    6 ar
    14    5   10 1
    15    6    7 ar
    16    6   33 1
    17    7    8 ar
    18    7   34 1
    19    8    9 ar
    20    8   35 1
    21   10   11 2
    22   10   12 am
    23   12   13 1
    24   12   26 1
    25   13   18 ar
    26   13   14 ar
    27   14   15 ar
    28   15   16 ar
    29   16   17 ar
    30   16   19 1
    31   17   18 ar
    32   17   36 1
    33   18   37 1
    34   19   24 ar
    35   19   20 ar
    36   20   21 ar
    37   20   38 1
    38   21   22 ar
    39   21   39 1
    40   22   23 ar
    41   22   40 1
    42   23   24 ar
    43   23   25 1
    44   24   41 1
    45   25   42 1
    46   25   43 1
    47   26   44 1
    48   26   45 1
    49   26   46 1
@<TRIPOS>MOLECULE
CHEMBL304028
   34    36     0     0     0
SMALL
USER_CHARGES

@<TRIPOS>ATOM
      1 C1         -0.0167    1.3792    0.0096 C.ar      1 <0>        -0.0996
      2 C2          1.1683    2.0931    0.0021 C.ar      1 <0>        -0.1190
      3 C3          2.3774    1.4286   -0.0130 C.ar      1 <0>        -0.0854
      4 C4          2.4032    0.0335   -0.0208 C.ar      1 <0>        -0.0090
      5 C5          1.2045   -0.6806   -0.0131 C.ar      1 <0>        -0.0858
      6 C6          0.0021   -0.0041    0.0020 C.ar      1 <0>        -0.1193
      7 C7          3.6547   -0.6624   -0.0369 C.1       1 <0>        -0.0271
      8 C8          4.6806   -1.2329   -0.0502 C.1       1 <0>        -0.2218
      9 C9          5.9670   -1.9483   -0.0668 C.3       1 <0>         0.3197
     10 C10         5.6756   -3.4312   -0.0719 C.ar      1 <0>        -0.1301
     11 C11         4.9381   -4.0182    0.9305 C.ar      1 <0>        -0.0858
     12 C12         4.6902   -5.3818    0.8926 C.ar      1 <0>         0.0801
     13 C13         5.1842   -6.1464   -0.1511 C.ar      1 <0>        -0.0921
     14 C14         5.9246   -5.5573   -1.1574 C.ar      1 <0>        -0.1258
     15 C15         6.1750   -4.1921   -1.1231 C.ar      1 <0>         0.1854
     16 N1          6.9211   -3.5789   -2.1319 N.am      1 <0>        -0.6559
     17 C16         7.1896   -2.2670   -2.1440 C.2       1 <0>         0.7195
     18 O1          7.8474   -1.8185   -3.0631 O.2       1 <0>        -0.5513
     19 N2          6.7649   -1.4219   -1.1873 N.am      1 <0>        -0.7056
     20 F1          3.9672   -5.9646    1.8739 F         1 <0>        -0.1284
     21 C17         6.7030   -1.6173    1.2330 C.3       1 <0>         0.4483
     22 F2          5.9315   -2.0312    2.3242 F         1 <0>        -0.1654
     23 F3          7.9343   -2.2812    1.2538 F         1 <0>        -0.1647
     24 F4          6.9163   -0.2367    1.3096 F         1 <0>        -0.1687
     25 H1         -0.9605    1.9041    0.0260 H         1 <0>         0.1297
     26 H2          1.1469    3.1729    0.0078 H         1 <0>         0.1323
     27 H3          3.3018    1.9871   -0.0192 H         1 <0>         0.1302
     28 H4          1.2178   -1.7605   -0.0194 H         1 <0>         0.1287
     29 H5         -0.9265   -0.5556    0.0079 H         1 <0>         0.1318
     30 H6          4.5544   -3.4194    1.7433 H         1 <0>         0.1572
     31 H7          4.9900   -7.2084   -0.1781 H         1 <0>         0.1524
     32 H8          6.3082   -6.1575   -1.9692 H         1 <0>         0.1518
     33 H9          7.2602   -4.1278   -2.8561 H         1 <0>         0.4331
     34 H10         6.9821   -0.4777   -1.2345 H         1 <0>         0.4404
@<TRIPOS>BOND
     1    1    6 ar
     2    1    2 ar
     3    1   25 1
     4    2    3 ar
     5    2   26 1
     6    3    4 ar
     7    3   27 1
     8    4    5 ar
     9    4    7 1
    10    5    6 ar
    11    5   28 1
    12    6   29 1
    13    7    8 3
    14    8    9 1
    15    9   19 1
    16    9   10 1
    17    9   21 1
    18   10   15 ar
    19   10   11 ar
    20   11   12 ar
    21   11   30 1
    22   12   13 ar
    23   12   20 1
    24   13   14 ar
    25   13   31 1
    26   14   15 ar
    27   14   32 1
    28   15   16 1
    29   16   17 am
    30   16   33 1
    31   17   18 2
    32   17   19 am
    33   19   34 1
    34   21   22 1
    35   21   23 1
    36   21   24 1
@<TRIPOS>MOLECULE
CHEMBL114559
   36    38     0     0     0
SMALL
USER_CHARGES

@<TRIPOS>ATOM
      1 C1         -0.0287    1.3926    0.0078 C.ar      1 <0>        -0.0989
      2 C2          1.1562    2.1055    0.0006 C.ar      1 <0>        -0.0973
      3 C3          2.3682    1.4354   -0.0119 C.ar      1 <0>         0.0344
      4 C4          2.3899    0.0424   -0.0166 C.ar      1 <0>         0.0349
      5 C5          1.1992   -0.6651   -0.0095 C.ar      1 <0>        -0.0921
      6 C6         -0.0072    0.0106    0.0031 C.ar      1 <0>        -0.0757
      7 C7         -1.3014   -0.7614    0.0111 C.3       1 <0>        -0.0878
      8 C8         -1.7510   -1.0180   -1.4287 C.3       1 <0>         0.1268
      9 N1         -3.0091   -1.7686   -1.4210 N.pl3     1 <0>        -0.6823
     10 C9         -3.5972   -2.1100   -2.5846 C.2       1 <0>         0.5206
     11 S1         -2.8741   -1.6666   -4.0717 S.2       1 <0>        -0.4989
     12 N2         -4.7547   -2.8005   -2.5775 N.pl3     1 <0>        -0.6187
     13 C10        -5.4190   -3.0595   -3.7750 C.ar      1 <0>         0.3540
     14 C11        -6.6643   -3.6778   -3.7520 C.ar      1 <0>        -0.1928
     15 C12        -7.3130   -3.9292   -4.9477 C.ar      1 <0>        -0.0243
     16 C13        -6.6911   -3.5517   -6.1312 C.ar      1 <0>        -0.1686
     17 C14        -5.4530   -2.9413   -6.0794 C.ar      1 <0>         0.1559
     18 N3         -4.8610   -2.7097   -4.9231 N.ar      1 <0>        -0.4031
     19 Br1        -7.5303   -3.8706   -7.7956 Br        1 <0>        -0.0380
     20 O1          3.6899   -0.3735   -0.0291 O.3       1 <0>        -0.3082
     21 C15         4.4563    0.7727   -0.4441 C.3       1 <0>         0.2128
     22 O2          3.6547    1.8916   -0.0213 O.3       1 <0>        -0.3082
     23 H1         -0.9728    1.9167    0.0217 H         1 <0>         0.1398
     24 H2          1.1364    3.1853    0.0043 H         1 <0>         0.1384
     25 H3          1.2130   -1.7450   -0.0131 H         1 <0>         0.1363
     26 H4         -1.1533   -1.7136    0.5206 H         1 <0>         0.0838
     27 H5         -2.0652   -0.1850    0.5330 H         1 <0>         0.0860
     28 H6         -1.8991   -0.0659   -1.9382 H         1 <0>         0.0932
     29 H7         -0.9872   -1.5945   -1.9506 H         1 <0>         0.0920
     30 H8         -3.4188   -2.0198   -0.5784 H         1 <0>         0.3965
     31 H9         -5.1253   -3.1173   -1.7389 H         1 <0>         0.4101
     32 H10        -7.1187   -3.9584   -2.8133 H         1 <0>         0.1413
     33 H11        -8.2809   -4.4083   -4.9608 H         1 <0>         0.1483
     34 H12        -4.9653   -2.6459   -6.9966 H         1 <0>         0.1686
     35 H13         5.4257    0.7860    0.0542 H         1 <0>         0.1337
     36 H14         4.5810    0.7784   -1.5269 H         1 <0>         0.0874
@<TRIPOS>BOND
     1    1    6 ar
     2    1    2 ar
     3    1   23 1
     4    2    3 ar
     5    2   24 1
     6    3   22 1
     7    3    4 ar
     8    4    5 ar
     9    4   20 1
    10    5    6 ar
    11    5   25 1
    12    6    7 1
    13    7    8 1
    14    7   26 1
    15    7   27 1
    16    8    9 1
    17    8   28 1
    18    8   29 1
    19    9   10 1
    20    9   30 1
    21   10   11 2
    22   10   12 1
    23   12   13 1
    24   12   31 1
    25   13   18 ar
    26   13   14 ar
    27   14   15 ar
    28   14   32 1
    29   15   16 ar
    30   15   33 1
    31   16   17 ar
    32   16   19 1
    33   17   18 ar
    34   17   34 1
    35   20   21 1
    36   21   22 1
    37   21   35 1
    38   21   36 1
@<TRIPOS>MOLECULE
CHEMBL83362
   44    49     0     0     0
SMALL
USER_CHARGES

@<TRIPOS>ATOM
      1 C1          0.0072    1.3211    0.5084 C.ar      1 <0>        -0.1152
      2 C2          1.1839    2.0710    0.5012 C.ar      1 <0>        -0.1030
      3 C3          2.3986    1.4911    0.3261 C.ar      1 <0>        -0.1688
      4 C4          2.4838    0.0937    0.1459 C.ar      1 <0>        -0.0174
      5 C5          1.2471   -0.6945    0.1535 C.ar      1 <0>        -0.0541
      6 C6          0.0181   -0.0259    0.3408 C.ar      1 <0>        -0.1041
      7 C7          1.2951   -2.0763   -0.0220 C.ar      1 <0>        -0.0721
      8 C8          2.5258   -2.7041   -0.2049 C.ar      1 <0>        -0.0524
      9 C9          2.6114   -4.1014   -0.3861 C.ar      1 <0>        -0.1008
     10 C10         3.8262   -4.6808   -0.5620 C.ar      1 <0>        -0.1150
     11 C11         5.0029   -3.9308   -0.5687 C.ar      1 <0>        -0.1035
     12 C12         4.9917   -2.5840   -0.4001 C.ar      1 <0>        -0.1064
     13 C13         3.7625   -1.9158   -0.2124 C.ar      1 <0>        -0.0132
     14 C14         3.7145   -0.5341   -0.0369 C.ar      1 <0>        -0.0716
     15 C15         4.9853    0.2759   -0.0447 C.3       1 <0>         0.2626
     16 C16         5.7388    0.1833    1.2492 C.ar      1 <0>        -0.0514
     17 C17         6.4088   -0.8351    1.8885 C.ar      1 <0>        -0.0905
     18 C18         6.9998   -0.6105    3.1199 C.ar      1 <0>        -0.0783
     19 C19         6.9213    0.6374    3.7128 C.ar      1 <0>        -0.1167
     20 C20         6.2619    1.6688    3.0771 C.ar      1 <0>        -0.0395
     21 C21         5.6718    1.4533    1.8307 C.ar      1 <0>        -0.1478
     22 C22         4.9617    2.3524    0.8998 C.2       1 <0>         0.5981
     23 O1          4.6182    3.4899    1.1562 O.2       1 <0>        -0.4945
     24 N1          4.7499    1.7299   -0.2722 N.am      1 <0>        -0.6205
     25 C23         4.4408    1.9544   -1.6943 C.3       1 <0>         0.1228
     26 C24         5.5362    1.2876   -2.5746 C.3       1 <0>        -0.0915
     27 S1          6.0652   -0.1034   -1.4841 S.3       1 <0>        -0.2406
     28 H1         -0.9366    1.8251    0.6556 H         1 <0>         0.1230
     29 H2          1.1266    3.1408    0.6380 H         1 <0>         0.1212
     30 H3          3.2940    2.0950    0.3244 H         1 <0>         0.1703
     31 H4         -0.9075   -0.5824    0.3510 H         1 <0>         0.1308
     32 H5          0.3844   -2.6568   -0.0161 H         1 <0>         0.1376
     33 H6          1.7162   -4.7056   -0.3844 H         1 <0>         0.1310
     34 H7          3.8837   -5.7504   -0.7000 H         1 <0>         0.1247
     35 H8          5.9472   -4.4351   -0.7114 H         1 <0>         0.1247
     36 H9          5.9171   -2.0273   -0.4098 H         1 <0>         0.1305
     37 H10         6.4731   -1.8104    1.4291 H         1 <0>         0.1346
     38 H11         7.5242   -1.4117    3.6194 H         1 <0>         0.1401
     39 H12         7.3778    0.8044    4.6772 H         1 <0>         0.1405
     40 H13         6.2022    2.6413    3.5430 H         1 <0>         0.1389
     41 H14         3.4702    1.5172   -1.9287 H         1 <0>         0.0978
     42 H15         4.4144    3.0252   -1.8959 H         1 <0>         0.1101
     43 H16         5.1164    0.9160   -3.5093 H         1 <0>         0.1211
     44 H17         6.3611    1.9749   -2.7625 H         1 <0>         0.1085
@<TRIPOS>BOND
     1    1    6 ar
     2    1    2 ar
     3    1   28 1
     4    2    3 ar
     5    2   29 1
     6    3    4 ar
     7    3   30 1
     8    4   14 ar
     9    4    5 ar
    10    5    6 ar
    11    5    7 ar
    12    6   31 1
    13    7    8 ar
    14    7   32 1
    15    8   13 ar
    16    8    9 ar
    17    9   10 ar
    18    9   33 1
    19   10   11 ar
    20   10   34 1
    21   11   12 ar
    22   11   35 1
    23   12   13 ar
    24   12   36 1
    25   13   14 ar
    26   14   15 1
    27   15   24 1
    28   15   27 1
    29   15   16 1
    30   16   21 ar
    31   16   17 ar
    32   17   18 ar
    33   17   37 1
    34   18   19 ar
    35   18   38 1
    36   19   20 ar
    37   19   39 1
    38   20   21 ar
    39   20   40 1
    40   21   22 1
    41   22   23 2
    42   22   24 am
    43   24   25 1
    44   25   26 1
    45   25   41 1
    46   25   42 1
    47   26   27 1
    48   26   43 1
    49   26   44 1
@<TRIPOS>MOLECULE
CHEMBL83362__1
   44    49     0     0     0
SMALL
USER_CHARGES

@<TRIPOS>ATOM
      1 C1          0.0671    1.2116   -1.1008 C.ar      1 <0>        -0.1152
      2 C2          1.2438    1.9616   -1.1080 C.ar      1 <0>        -0.1030
      3 C3          2.4392    1.4169   -0.7665 C.ar      1 <0>        -0.1687
      4 C4          2.5038    0.0571   -0.3929 C.ar      1 <0>        -0.0174
      5 C5          1.2671   -0.7311   -0.3853 C.ar      1 <0>        -0.0541
      6 C6          0.0587   -0.1002   -0.7519 C.ar      1 <0>        -0.1041
      7 C7          1.2951   -2.0763   -0.0220 C.ar      1 <0>        -0.0722
      8 C8          2.5058   -2.6676    0.3339 C.ar      1 <0>        -0.0524
      9 C9          2.5710   -4.0276    0.7067 C.ar      1 <0>        -0.1008
     10 C10         3.7668   -4.5721    1.0473 C.ar      1 <0>        -0.1150
     11 C11         4.9433   -3.8219    1.0405 C.ar      1 <0>        -0.1035
     12 C12         4.9512   -2.5099    0.6925 C.ar      1 <0>        -0.1064
     13 C13         3.7425   -1.8793    0.3264 C.ar      1 <0>        -0.0132
     14 C14         3.7145   -0.5341   -0.0369 C.ar      1 <0>        -0.0716
     15 C15         4.9853    0.2759   -0.0447 C.3       1 <0>         0.2626
     16 C16         5.8319    0.0130   -1.2548 C.ar      1 <0>        -0.0514
     17 C17         6.5423   -1.0791   -1.6993 C.ar      1 <0>        -0.0905
     18 C18         7.2238   -1.0201   -2.9027 C.ar      1 <0>        -0.0783
     19 C19         7.1956    0.1358   -3.6630 C.ar      1 <0>        -0.1167
     20 C20         6.4966    1.2404   -3.2229 C.ar      1 <0>        -0.0395
     21 C21         5.8145    1.1924   -2.0061 C.ar      1 <0>        -0.1478
     22 C22         5.0421    2.2055   -1.2604 C.2       1 <0>         0.5981
     23 O1          4.7242    3.2961   -1.6929 O.2       1 <0>        -0.4944
     24 N1          4.7411    1.7461   -0.0339 N.am      1 <0>        -0.6205
     25 C23         4.3287    2.1592    1.3180 C.3       1 <0>         0.1228
     26 C24         5.3527    1.6231    2.3589 C.3       1 <0>        -0.0915
     27 S1          5.9539    0.1001    1.5086 S.3       1 <0>        -0.2407
     28 H1         -0.8621    1.6886   -1.3758 H         1 <0>         0.1230
     29 H2          1.2023    3.0024   -1.3931 H         1 <0>         0.1212
     30 H3          3.3352    2.0198   -0.7808 H         1 <0>         0.1703
     31 H4         -0.8664   -0.6574   -0.7545 H         1 <0>         0.1308
     32 H5          0.3843   -2.6567   -0.0161 H         1 <0>         0.1376
     33 H6          1.6752   -4.6307    0.7211 H         1 <0>         0.1310
     34 H7          3.8087   -5.6132    1.3313 H         1 <0>         0.1247
     35 H8          5.8719   -4.2975    1.3198 H         1 <0>         0.1247
     36 H9          5.8761   -1.9523    0.6954 H         1 <0>         0.1305
     37 H10         6.5681   -1.9828   -1.1084 H         1 <0>         0.1346
     38 H11         7.7797   -1.8788   -3.2491 H         1 <0>         0.1401
     39 H12         7.7234    0.1733   -4.6046 H         1 <0>         0.1405
     40 H13         6.4767    2.1408   -3.8190 H         1 <0>         0.1389
     41 H14         4.2929    3.2474    1.3705 H         1 <0>         0.1101
     42 H15         3.3413    1.7528    1.5369 H         1 <0>         0.0978
     43 H16         6.1648    2.3336    2.5127 H         1 <0>         0.1085
     44 H17         4.8630    1.3792    3.3017 H         1 <0>         0.1211
@<TRIPOS>BOND
     1    1    6 ar
     2    1    2 ar
     3    1   28 1
     4    2    3 ar
     5    2   29 1
     6    3    4 ar
     7    3   30 1
     8    4   14 ar
     9    4    5 ar
    10    5    6 ar
    11    5    7 ar
    12    6   31 1
    13    7    8 ar
    14    7   32 1
    15    8   13 ar
    16    8    9 ar
    17    9   10 ar
    18    9   33 1
    19   10   11 ar
    20   10   34 1
    21   11   12 ar
    22   11   35 1
    23   12   13 ar
    24   12   36 1
    25   13   14 ar
    26   14   15 1
    27   15   24 1
    28   15   27 1
    29   15   16 1
    30   16   21 ar
    31   16   17 ar
    32   17   18 ar
    33   17   37 1
    34   18   19 ar
    35   18   38 1
    36   19   20 ar
    37   19   39 1
    38   20   21 ar
    39   20   40 1
    40   21   22 1
    41   22   23 2
    42   22   24 am
    43   24   25 1
    44   25   26 1
    45   25   41 1
    46   25   42 1
    47   26   27 1
    48   26   43 1
    49   26   44 1
@<TRIPOS>MOLECULE
CHEMBL40576
   29    30     0     0     0
SMALL
USER_CHARGES

@<TRIPOS>ATOM
      1 C1          0.0039    1.3866    0.0114 C.ar      1 <0>        -0.0751
      2 C2          1.2164    2.0595    0.0023 C.ar      1 <0>        -0.1602
      3 C3          2.3906    1.3311   -0.0141 C.ar      1 <0>         0.1006
      4 N1          2.3664    0.0125   -0.0214 N.ar      1 <0>        -0.4678
      5 C4          1.2325   -0.6603   -0.0131 C.ar      1 <0>         0.0955
      6 C5          0.0185    0.0004    0.0037 C.ar      1 <0>        -0.1496
      7 C6          1.2603   -2.1670   -0.0226 C.3       1 <0>         0.1801
      8 N2          1.3746   -2.6446   -1.4029 N.pl3     1 <0>        -0.6744
      9 C7          1.4179   -3.9675   -1.6568 C.2       1 <0>         0.5230
     10 S1          1.3392   -5.0898   -0.3664 S.2       1 <0>        -0.4980
     11 N3          1.5231   -4.4069   -2.9265 N.pl3     1 <0>        -0.6182
     12 C8          1.6771   -5.7683   -3.1824 C.ar      1 <0>         0.3548
     13 C9          1.8922   -6.2042   -4.4852 C.ar      1 <0>        -0.1927
     14 C10         2.0435   -7.5581   -4.7255 C.ar      1 <0>        -0.0241
     15 C11         1.9742   -8.4340   -3.6494 C.ar      1 <0>        -0.1689
     16 C12         1.7579   -7.9308   -2.3812 C.ar      1 <0>         0.1564
     17 N4          1.6227   -6.6335   -2.1823 N.ar      1 <0>        -0.4032
     18 Br1         2.1731  -10.2952   -3.9179 Br        1 <0>        -0.0381
     19 H1         -0.9295    1.9296    0.0287 H         1 <0>         0.1400
     20 H2          1.2427    3.1391    0.0075 H         1 <0>         0.1401
     21 H3          3.3390    1.8476   -0.0213 H         1 <0>         0.1611
     22 H4         -0.9070   -0.5562    0.0108 H         1 <0>         0.1397
     23 H5          2.1151   -2.5183    0.5554 H         1 <0>         0.1077
     24 H6          0.3406   -2.5502    0.4194 H         1 <0>         0.1060
     25 H7          1.4192   -2.0087   -2.1340 H         1 <0>         0.3964
     26 H8          1.4916   -3.7757   -3.6624 H         1 <0>         0.4102
     27 H9          1.9402   -5.4953   -5.2986 H         1 <0>         0.1412
     28 H10         2.2114   -7.9259   -5.7270 H         1 <0>         0.1483
     29 H11         1.7032   -8.6076   -1.5413 H         1 <0>         0.1689
@<TRIPOS>BOND
     1    1    6 ar
     2    1    2 ar
     3    1   19 1
     4    2    3 ar
     5    2   20 1
     6    3    4 ar
     7    3   21 1
     8    4    5 ar
     9    5    6 ar
    10    5    7 1
    11    6   22 1
    12    7    8 1
    13    7   23 1
    14    7   24 1
    15    8    9 1
    16    8   25 1
    17    9   10 2
    18    9   11 1
    19   11   12 1
    20   11   26 1
    21   12   17 ar
    22   12   13 ar
    23   13   14 ar
    24   13   27 1
    25   14   15 ar
    26   14   28 1
    27   15   16 ar
    28   15   18 1
    29   16   17 ar
    30   16   29 1
@<TRIPOS>MOLECULE
CHEMBL199090
   57    59     0     0     0
SMALL
NO_CHARGES

@<TRIPOS>ATOM
      1 C1         -0.0187    1.5258    0.0104 C.3       1 <0>        -0.1551
      2 C2          0.0021   -0.0041    0.0020 C.3       1 <0>        -0.0902
      3 C3          0.7182   -0.4975   -1.2568 C.3       1 <0>        -0.1473
      4 C4          0.7421   -0.5109    1.2415 C.3       1 <0>        -0.1501
      5 C5         -0.0298   -0.1295    2.4784 C.2       1 <0>         0.3994
      6 O1         -1.0701    0.4875    2.3782 O.2       1 <0>        -0.4299
      7 C6          0.4748   -0.5028    3.7995 C.ar      1 <0>        -0.2470
      8 C7         -0.2478   -0.1525    4.9587 C.ar      1 <0>         0.2483
      9 C8          0.2245   -0.5022    6.2088 C.ar      1 <0>        -0.1427
     10 C9          1.4165   -1.2033    6.3392 C.ar      1 <0>         0.2226
     11 C10         2.1481   -1.5600    5.1914 C.ar      1 <0>        -0.1969
     12 C11         1.6771   -1.2160    3.9190 C.ar      1 <0>         0.2453
     13 O2          2.3778   -1.5639    2.8141 O.3       1 <0>        -0.4693
     14 C12         3.4079   -2.3023    5.3526 C.2       1 <0>         0.0852
     15 C13         3.8143   -2.6156    6.6371 C.2       1 <0>        -0.2416
     16 C14         3.0232   -2.2209    7.7276 C.2       1 <0>         0.5135
     17 O3          3.3885   -2.5004    8.8560 O.2       1 <0>        -0.4509
     18 O4          1.8762   -1.5435    7.5622 O.3       1 <0>        -0.2673
     19 C15         4.2143   -2.7015    4.1780 C.ar      1 <0>        -0.0495
     20 C16         4.8078   -1.7288    3.3721 C.ar      1 <0>        -0.1091
     21 C17         5.5589   -2.1076    2.2787 C.ar      1 <0>        -0.1134
     22 C18         5.7244   -3.4486    1.9803 C.ar      1 <0>        -0.1052
     23 C19         5.1386   -4.4178    2.7753 C.ar      1 <0>        -0.1094
     24 C20         4.3895   -4.0524    3.8746 C.ar      1 <0>        -0.0897
     25 C21        -0.5581   -0.1202    7.4387 C.3       1 <0>        -0.1283
     26 C22        -1.5328   -1.2192    7.7754 C.2       1 <0>         0.3652
     27 C23        -2.4405   -1.0813    8.9704 C.3       1 <0>        -0.1417
     28 C24        -3.7449   -0.4045    8.5446 C.3       1 <0>        -0.1420
     29 C25        -2.7476   -2.4676    9.5402 C.3       1 <0>        -0.1434
     30 O5         -1.5864   -2.2103    7.0875 O.2       1 <0>        -0.4462
     31 O6         -1.4122    0.5315    4.8456 O.3       1 <0>        -0.4663
     32 H1          1.0039    1.9031    0.0027 H         1 <0>         0.0486
     33 H2         -0.5459    1.8868   -0.8726 H         1 <0>         0.0543
     34 H3         -0.5289    1.8773    0.9072 H         1 <0>         0.0690
     35 H4         -1.0205   -0.3814    0.0098 H         1 <0>         0.0754
     36 H5          1.7408   -0.1202   -1.2645 H         1 <0>         0.0548
     37 H6          0.7330   -1.5874   -1.2628 H         1 <0>         0.0554
     38 H7          0.1910   -0.1364   -2.1398 H         1 <0>         0.0572
     39 H8          0.8346   -1.5958    1.1912 H         1 <0>         0.1097
     40 H9          1.7350   -0.0630    1.2804 H         1 <0>         0.0915
     41 H10         3.0283   -0.9042    2.5370 H         1 <0>         0.4004
     42 H11         4.7329   -3.1599    6.7998 H         1 <0>         0.1706
     43 H12         4.6791   -0.6818    3.6037 H         1 <0>         0.1230
     44 H13         6.0184   -1.3559    1.6540 H         1 <0>         0.1296
     45 H14         6.3130   -3.7399    1.1230 H         1 <0>         0.1267
     46 H15         5.2716   -5.4628    2.5370 H         1 <0>         0.1287
     47 H16         3.9363   -4.8100    4.4967 H         1 <0>         0.1264
     48 H17         0.1267    0.0266    8.2740 H         1 <0>         0.1189
     49 H18        -1.9489   -0.4761    9.7321 H         1 <0>         0.0983
     50 H19        -4.4015   -0.3048    9.4090 H         1 <0>         0.0711
     51 H20        -3.5261    0.5832    8.1387 H         1 <0>         0.0634
     52 H21        -4.2364   -1.0097    7.7829 H         1 <0>         0.0610
     53 H22        -1.8183   -2.9498    9.8436 H         1 <0>         0.0574
     54 H23        -3.4041   -2.3679   10.4046 H         1 <0>         0.0656
     55 H24        -3.2391   -3.0728    8.7785 H         1 <0>         0.0649
     56 H25        -1.1039    0.8042    7.2496 H         1 <0>         0.1243
     57 H26        -2.1936   -0.0325    4.7667 H         1 <0>         0.4071
@<TRIPOS>BOND
     1    1    2 1
     2    1   32 1
     3    1   33 1
     4    1   34 1
     5    2    3 1
     6    2    4 1
     7    2   35 1
     8    3   36 1
     9    3   37 1
    10    3   38 1
    11    4    5 1
    12    4   39 1
    13    4   40 1
    14    5    6 2
    15    5    7 1
    16    7   12 ar
    17    7    8 ar
    18    8    9 ar
    19    8   31 1
    20    9   10 ar
    21    9   25 1
    22   10   18 1
    23   10   11 ar
    24   11   12 ar
    25   11   14 1
    26   12   13 1
    27   13   41 1
    28   14   15 2
    29   14   19 1
    30   15   16 1
    31   15   42 1
    32   16   17 2
    33   16   18 1
    34   19   24 ar
    35   19   20 ar
    36   20   21 ar
    37   20   43 1
    38   21   22 ar
    39   21   44 1
    40   22   23 ar
    41   22   45 1
    42   23   24 ar
    43   23   46 1
    44   24   47 1
    45   25   26 1
    46   25   48 1
    47   25   56 1
    48   26   27 1
    49   26   30 2
    50   27   28 1
    51   27   29 1
    52   27   49 1
    53   28   50 1
    54   28   51 1
    55   28   52 1
    56   29   53 1
    57   29   54 1
    58   29   55 1
    59   31   57 1
@<TRIPOS>MOLECULE
CHEMBL328258
   39    40     0     0     0
SMALL
USER_CHARGES

@<TRIPOS>ATOM
      1 C1         -0.0390    1.4240    0.0246 C.3       1 <0>         0.0201
      2 O1         -0.0171   -0.0048    0.0150 O.3       1 <0>        -0.2849
      3 C2          0.6038   -0.6180    1.0529 C.ar      1 <0>         0.1867
      4 C3          1.1772    0.1360    2.0660 C.ar      1 <0>        -0.2240
      5 C4          1.8094   -0.4895    3.1218 C.ar      1 <0>        -0.0440
      6 C5          1.8775   -1.8729    3.1802 C.ar      1 <0>        -0.1723
      7 C6          1.3147   -2.6395    2.1847 C.ar      1 <0>        -0.0372
      8 C7          0.6645   -2.0199    1.1105 C.ar      1 <0>        -0.2083
      9 C8          0.0561   -2.8301    0.0484 C.2       1 <0>         0.3993
     10 O2         -0.5015   -2.2890   -0.8831 O.2       1 <0>        -0.4214
     11 C9          0.1242   -4.3340    0.1152 C.3       1 <0>        -0.1807
     12 C10        -0.5808   -4.9312   -1.1044 C.3       1 <0>         0.1329
     13 N1         -0.5145   -6.3932   -1.0394 N.pl3     1 <0>        -0.6829
     14 C11        -1.0732   -7.1371   -2.0146 C.2       1 <0>         0.5186
     15 N2         -1.0123   -8.4822   -1.9549 N.pl3     1 <0>        -0.6188
     16 C12        -1.6819   -9.2529   -2.9035 C.ar      1 <0>         0.3547
     17 C13        -1.7040  -10.6373   -2.7750 C.ar      1 <0>        -0.1933
     18 C14        -2.3726  -11.3907   -3.7232 C.ar      1 <0>        -0.0243
     19 C15        -2.9993  -10.7305   -4.7726 C.ar      1 <0>        -0.1691
     20 C16        -2.9367   -9.3520   -4.8376 C.ar      1 <0>         0.1563
     21 N3         -2.2954   -8.6599   -3.9153 N.ar      1 <0>        -0.4032
     22 Br1        -3.9277  -11.7084   -6.0984 Br        1 <0>        -0.0385
     23 S1         -1.8602   -6.3734   -3.3293 S.2       1 <0>        -0.4918
     24 H1          0.9830    1.8030    0.0198 H         1 <0>         0.0583
     25 H2         -0.5646    1.7853   -0.8592 H         1 <0>         0.1062
     26 H3         -0.5519    1.7735    0.9206 H         1 <0>         0.0583
     27 H4          1.1293    1.2143    2.0286 H         1 <0>         0.1361
     28 H5          2.2544    0.1030    3.9076 H         1 <0>         0.1314
     29 H6          2.3749   -2.3517    4.0107 H         1 <0>         0.1315
     30 H7          1.3710   -3.7169    2.2344 H         1 <0>         0.1367
     31 H8          1.1672   -4.6505    0.1230 H         1 <0>         0.1057
     32 H9         -0.3673   -4.6800    1.0245 H         1 <0>         0.1057
     33 H10        -1.6238   -4.6147   -1.1122 H         1 <0>         0.0971
     34 H11        -0.0893   -4.5852   -2.0137 H         1 <0>         0.0969
     35 H12        -0.5023   -8.9138   -1.2516 H         1 <0>         0.4094
     36 H13        -1.2056  -11.1180   -1.9461 H         1 <0>         0.1411
     37 H14        -2.4064  -12.4677   -3.6495 H         1 <0>         0.1481
     38 H15        -3.4222   -8.8340   -5.6515 H         1 <0>         0.1686
     39 H16        -0.0686   -6.8259   -0.2945 H         1 <0>         0.3952
@<TRIPOS>BOND
     1    1    2 1
     2    1   24 1
     3    1   25 1
     4    1   26 1
     5    2    3 1
     6    3    8 ar
     7    3    4 ar
     8    4    5 ar
     9    4   27 1
    10    5    6 ar
    11    5   28 1
    12    6    7 ar
    13    6   29 1
    14    7    8 ar
    15    7   30 1
    16    8    9 1
    17    9   10 2
    18    9   11 1
    19   11   12 1
    20   11   31 1
    21   11   32 1
    22   12   13 1
    23   12   33 1
    24   12   34 1
    25   13   14 1
    26   13   39 1
    27   14   15 1
    28   14   23 2
    29   15   16 1
    30   15   35 1
    31   16   21 ar
    32   16   17 ar
    33   17   18 ar
    34   17   36 1
    35   18   19 ar
    36   18   37 1
    37   19   20 ar
    38   19   22 1
    39   20   21 ar
    40   20   38 1
@<TRIPOS>MOLECULE
CHEMBL187438
   45    47     0     0     0
SMALL
USER_CHARGES

@<TRIPOS>ATOM
      1 C1         -0.0187    1.5258    0.0104 C.3       1 <0>        -0.1539
      2 C2          0.0021   -0.0041    0.0020 C.3       1 <0>        -0.1239
      3 C3          0.7182   -0.4975   -1.2568 C.3       1 <0>        -0.0858
      4 C4          0.7386   -2.0043   -1.2651 C.2       1 <0>        -0.0618
      5 C5         -0.2184   -2.6891   -1.9387 C.2       1 <0>        -0.3685
      6 C6         -0.1702   -4.1524   -1.9276 C.ar      1 <0>        -0.0815
      7 C7         -1.1294   -4.9130   -2.6045 C.ar      1 <0>        -0.0636
      8 C8         -1.0560   -6.2776   -2.5750 C.ar      1 <0>        -0.0560
      9 C9         -0.0369   -6.9155   -1.8786 C.ar      1 <0>        -0.0596
     10 C10         0.9179   -6.1855   -1.2047 C.ar      1 <0>        -0.1444
     11 C11         0.8635   -4.7955   -1.2212 C.ar      1 <0>         0.1816
     12 N1          1.8070   -4.0409   -0.5566 N.am      1 <0>        -0.6220
     13 C12         1.7572   -2.6974   -0.5766 C.2       1 <0>         0.5352
     14 O1          2.6106   -2.0622    0.0183 O.2       1 <0>        -0.5157
     15 Cl1        -2.2467   -7.2218   -3.4145 Cl        1 <0>        -0.0569
     16 S1         -1.4924   -1.8368   -2.8076 S.o       1 <0>         1.3262
     17 O2         -2.6884   -2.4661   -2.3686 O.2       1 <0>        -0.8286
     18 C13        -1.1926   -2.2549   -4.5472 C.3       1 <0>        -0.4200
     19 C14         0.2457   -1.8888   -4.9191 C.3       1 <0>        -0.0932
     20 C15         0.4985   -2.2415   -6.3862 C.3       1 <0>        -0.1158
     21 C16        -0.4724   -1.4596   -7.2733 C.3       1 <0>        -0.1206
     22 C17        -1.9106   -1.8256   -6.9014 C.3       1 <0>        -0.1141
     23 C18        -2.1635   -1.4730   -5.4342 C.3       1 <0>        -0.0953
     24 H1          1.0039    1.9031    0.0027 H         1 <0>         0.0602
     25 H2         -0.5459    1.8868   -0.8726 H         1 <0>         0.0604
     26 H3         -0.5289    1.8773    0.9072 H         1 <0>         0.0595
     27 H4          0.5293   -0.3651    0.8851 H         1 <0>         0.0715
     28 H5         -1.0205   -0.3814    0.0098 H         1 <0>         0.0634
     29 H6          0.1910   -0.1364   -2.1398 H         1 <0>         0.0866
     30 H7          1.7408   -0.1202   -1.2645 H         1 <0>         0.1027
     31 H8         -1.9247   -4.4242   -3.1477 H         1 <0>         0.1456
     32 H9          0.0071   -7.9945   -1.8649 H         1 <0>         0.1466
     33 H10         1.7061   -6.6907   -0.6662 H         1 <0>         0.1470
     34 H11        -1.3454   -3.3239   -4.6954 H         1 <0>         0.0976
     35 H12         0.3985   -0.8198   -4.7708 H         1 <0>         0.0797
     36 H13         0.9374   -2.4458   -4.2871 H         1 <0>         0.0649
     37 H14         1.5232   -1.9807   -6.6512 H         1 <0>         0.0668
     38 H15         0.3457   -3.3105   -6.5345 H         1 <0>         0.0604
     39 H16        -0.3196   -0.3906   -7.1250 H         1 <0>         0.0666
     40 H17        -0.2922   -1.7108   -8.3186 H         1 <0>         0.0630
     41 H18        -2.6023   -1.2686   -7.5334 H         1 <0>         0.0681
     42 H19        -2.0634   -2.8946   -7.0497 H         1 <0>         0.0617
     43 H20        -3.1881   -1.7338   -5.1693 H         1 <0>         0.0680
     44 H21        -2.0107   -0.4040   -5.2860 H         1 <0>         0.0780
     45 H22         2.5188   -4.4856   -0.0703 H         1 <0>         0.4200
@<TRIPOS>BOND
     1    1    2 1
     2    1   24 1
     3    1   25 1
     4    1   26 1
     5    2    3 1
     6    2   27 1
     7    2   28 1
     8    3    4 1
     9    3   29 1
    10    3   30 1
    11    4   13 1
    12    4    5 2
    13    5    6 1
    14    5   16 1
    15    6   11 ar
    16    6    7 ar
    17    7    8 ar
    18    7   31 1
    19    8    9 ar
    20    8   15 1
    21    9   10 ar
    22    9   32 1
    23   10   11 ar
    24   10   33 1
    25   11   12 1
    26   12   13 am
    27   12   45 1
    28   13   14 2
    29   16   17 2
    30   16   18 1
    31   18   23 1
    32   18   19 1
    33   18   34 1
    34   19   20 1
    35   19   35 1
    36   19   36 1
    37   20   21 1
    38   20   37 1
    39   20   38 1
    40   21   22 1
    41   21   39 1
    42   21   40 1
    43   22   23 1
    44   22   41 1
    45   22   42 1
    46   23   43 1
    47   23   44 1
@<TRIPOS>MOLECULE
CHEMBL187438__1
   45    47     0     0     0
SMALL
USER_CHARGES

@<TRIPOS>ATOM
      1 C1          0.9345    1.7478   -1.1891 C.3       1 <0>        -0.1548
      2 C2          0.7679    0.2788   -0.7955 C.3       1 <0>        -0.1212
      3 C3          1.0668   -0.6102   -2.0043 C.3       1 <0>        -0.0861
      4 C4          0.9026   -2.0572   -1.6166 C.2       1 <0>        -0.0639
      5 C5         -0.2731   -2.6904   -1.8519 C.2       1 <0>        -0.3690
      6 C6         -0.4003   -4.0963   -1.4639 C.ar      1 <0>        -0.0865
      7 C7         -1.5881   -4.8024   -1.6816 C.ar      1 <0>        -0.0631
      8 C8         -1.6745   -6.1144   -1.3081 C.ar      1 <0>        -0.0630
      9 C9         -0.5927   -6.7526   -0.7141 C.ar      1 <0>        -0.0576
     10 C10         0.5864   -6.0758   -0.4900 C.ar      1 <0>        -0.1498
     11 C11         0.6974   -4.7400   -0.8624 C.ar      1 <0>         0.1812
     12 N1          1.8663   -4.0396   -0.6510 N.am      1 <0>        -0.6219
     13 C12         1.9752   -2.7499   -1.0152 C.2       1 <0>         0.5346
     14 O1          3.0250   -2.1632   -0.8173 O.2       1 <0>        -0.5173
     15 Cl1        -3.1487   -6.9907   -1.5778 Cl        1 <0>        -0.0583
     16 S1         -1.6184   -1.8396   -2.6075 S.o       1 <0>         1.3261
     17 O2         -2.1897   -2.8054   -3.4794 O.2       1 <0>        -0.8282
     18 C13        -2.7588   -1.5147   -1.2347 C.3       1 <0>        -0.4132
     19 C14        -3.0966   -2.8301   -0.5301 C.3       1 <0>        -0.1218
     20 C15        -4.0584   -2.5561    0.6278 C.3       1 <0>        -0.1134
     21 C16        -5.3418   -1.9236    0.0859 C.3       1 <0>        -0.1225
     22 C17        -5.0041   -0.6082   -0.6188 C.3       1 <0>        -0.1123
     23 C18        -4.0422   -0.8822   -1.7766 C.3       1 <0>        -0.0981
     24 H1          1.9576    1.9207   -1.5231 H         1 <0>         0.0593
     25 H2          0.2431    1.9883   -1.9968 H         1 <0>         0.0608
     26 H3          0.7216    2.3812   -0.3279 H         1 <0>         0.0592
     27 H4          1.4593    0.0383    0.0122 H         1 <0>         0.0709
     28 H5         -0.2552    0.1059   -0.4615 H         1 <0>         0.0650
     29 H6          0.3754   -0.3698   -2.8119 H         1 <0>         0.0854
     30 H7          2.0899   -0.4374   -2.3383 H         1 <0>         0.1013
     31 H8         -2.4333   -4.3128   -2.1425 H         1 <0>         0.1670
     32 H9         -0.6770   -7.7897   -0.4247 H         1 <0>         0.1451
     33 H10         1.4217   -6.5807   -0.0276 H         1 <0>         0.1456
     34 H11        -2.2891   -0.8329   -0.5258 H         1 <0>         0.1273
     35 H12        -3.5663   -3.5119   -1.2390 H         1 <0>         0.0725
     36 H13        -2.1822   -3.2807   -0.1440 H         1 <0>         0.0700
     37 H14        -4.2990   -3.4932    1.1298 H         1 <0>         0.0626
     38 H15        -3.5886   -1.8743    1.3368 H         1 <0>         0.0639
     39 H16        -5.8116   -2.6054   -0.6231 H         1 <0>         0.0617
     40 H17        -6.0271   -1.7284    0.9108 H         1 <0>         0.0638
     41 H18        -5.9184   -0.1576   -1.0048 H         1 <0>         0.0673
     42 H19        -4.5343    0.0736    0.0902 H         1 <0>         0.0664
     43 H20        -3.8016    0.0549   -2.2786 H         1 <0>         0.0759
     44 H21        -4.5120   -1.5640   -2.4856 H         1 <0>         0.0699
     45 H22         2.6219   -4.4846   -0.2364 H         1 <0>         0.4195
@<TRIPOS>BOND
     1    1    2 1
     2    1   24 1
     3    1   25 1
     4    1   26 1
     5    2    3 1
     6    2   27 1
     7    2   28 1
     8    3    4 1
     9    3   29 1
    10    3   30 1
    11    4   13 1
    12    4    5 2
    13    5    6 1
    14    5   16 1
    15    6   11 ar
    16    6    7 ar
    17    7    8 ar
    18    7   31 1
    19    8    9 ar
    20    8   15 1
    21    9   10 ar
    22    9   32 1
    23   10   11 ar
    24   10   33 1
    25   11   12 1
    26   12   13 am
    27   12   45 1
    28   13   14 2
    29   16   17 2
    30   16   18 1
    31   18   23 1
    32   18   19 1
    33   18   34 1
    34   19   20 1
    35   19   35 1
    36   19   36 1
    37   20   21 1
    38   20   37 1
    39   20   38 1
    40   21   22 1
    41   21   39 1
    42   21   40 1
    43   22   23 1
    44   22   41 1
    45   22   42 1
    46   23   43 1
    47   23   44 1
@<TRIPOS>MOLECULE
CHEMBL341667
   48    52     0     0     0
SMALL
USER_CHARGES

@<TRIPOS>ATOM
      1 C1         -0.0167    1.3781    0.0096 C.ar      1 <0>        -0.1110
      2 C2          1.1709    2.0855    0.0021 C.ar      1 <0>        -0.1229
      3 C3          2.3773    1.4107   -0.0130 C.ar      1 <0>        -0.0974
      4 C4          2.3960    0.0285   -0.0201 C.ar      1 <0>        -0.0951
      5 C5          1.2084   -0.6789   -0.0117 C.ar      1 <0>        -0.0975
      6 C6          0.0021   -0.0041    0.0020 C.ar      1 <0>        -0.1229
      7 C7          3.7112   -0.7071   -0.0376 C.3       1 <0>         0.1040
      8 O1          4.1410   -0.9464    1.3041 O.3       1 <0>        -0.3728
      9 C8          5.3853   -1.6423    1.4004 C.3       1 <0>         0.1029
     10 C9          5.7397   -1.8393    2.8519 C.ar      1 <0>        -0.0542
     11 C10         4.9002   -1.3755    3.8550 C.ar      1 <0>        -0.1305
     12 C11         5.2512   -1.5743    5.1744 C.ar      1 <0>         0.1116
     13 N1          6.3623   -2.2122    5.4903 N.ar      1 <0>        -0.4679
     14 C12         7.1892   -2.6799    4.5661 C.ar      1 <0>         0.3632
     15 C13         6.9123   -2.4949    3.2137 C.ar      1 <0>         0.0920
     16 N2          7.7969   -2.9023    2.2186 N.am      1 <0>        -0.6456
     17 C14         8.4975   -4.0258    2.1913 C.2       1 <0>         0.5809
     18 O2          9.2062   -4.2156    1.2218 O.2       1 <0>        -0.5235
     19 C15         8.4921   -5.0599    3.2302 C.ar      1 <0>        -0.1983
     20 C16         8.5295   -6.4129    2.8728 C.ar      1 <0>        -0.0028
     21 C17         8.5632   -7.3594    3.8819 C.ar      1 <0>        -0.1891
     22 C18         8.5648   -6.9463    5.2020 C.ar      1 <0>         0.1488
     23 N3          8.5147   -5.6669    5.5172 N.ar      1 <0>        -0.4944
     24 C19         8.4567   -4.7210    4.5910 C.ar      1 <0>         0.4150
     25 N4          8.3222   -3.3874    4.9688 N.pl3     1 <0>        -0.5550
     26 C20         9.3494   -2.7355    5.7849 C.3       1 <0>         0.1034
     27 C21        10.6539   -3.4993    6.0212 C.3       1 <0>        -0.1835
     28 C22         9.6456   -3.3366    7.1604 C.3       1 <0>        -0.1800
     29 H1         -0.9591    1.9053    0.0259 H         1 <0>         0.1239
     30 H2          1.1563    3.1654    0.0076 H         1 <0>         0.1248
     31 H3          3.3051    1.9634   -0.0196 H         1 <0>         0.1232
     32 H4          1.2231   -1.7588   -0.0176 H         1 <0>         0.1228
     33 H5         -0.9258   -0.5567    0.0082 H         1 <0>         0.1247
     34 H6          3.5884   -1.6586   -0.5549 H         1 <0>         0.0621
     35 H7          4.4573   -0.1052   -0.5563 H         1 <0>         0.0626
     36 H8          5.2973   -2.6133    0.9129 H         1 <0>         0.0733
     37 H9          6.1662   -1.0598    0.9116 H         1 <0>         0.0705
     38 H10         3.9822   -0.8642    3.6056 H         1 <0>         0.1558
     39 H11         4.6081   -1.2034    5.9587 H         1 <0>         0.1685
     40 H12         7.9117   -2.3005    1.4666 H         1 <0>         0.4107
     41 H13         8.5316   -6.7108    1.8347 H         1 <0>         0.1492
     42 H14         8.5885   -8.4118    3.6406 H         1 <0>         0.1495
     43 H15         8.6074   -7.6849    5.9887 H         1 <0>         0.1684
     44 H16         9.4113   -1.6519    5.6854 H         1 <0>         0.1282
     45 H17        10.7479   -4.4868    5.5695 H         1 <0>         0.0915
     46 H18        11.5744   -2.9182    6.0770 H         1 <0>         0.1035
     47 H19         9.9027   -2.6485    7.9656 H         1 <0>         0.0973
     48 H20         9.0761   -4.2171    7.4581 H         1 <0>         0.1121
@<TRIPOS>BOND
     1    1    6 ar
     2    1    2 ar
     3    1   29 1
     4    2    3 ar
     5    2   30 1
     6    3    4 ar
     7    3   31 1
     8    4    5 ar
     9    4    7 1
    10    5    6 ar
    11    5   32 1
    12    6   33 1
    13    7    8 1
    14    7   34 1
    15    7   35 1
    16    8    9 1
    17    9   10 1
    18    9   36 1
    19    9   37 1
    20   10   15 ar
    21   10   11 ar
    22   11   12 ar
    23   11   38 1
    24   12   13 ar
    25   12   39 1
    26   13   14 ar
    27   14   25 1
    28   14   15 ar
    29   15   16 1
    30   16   17 am
    31   16   40 1
    32   17   18 2
    33   17   19 1
    34   19   24 ar
    35   19   20 ar
    36   20   21 ar
    37   20   41 1
    38   21   22 ar
    39   21   42 1
    40   22   23 ar
    41   22   43 1
    42   23   24 ar
    43   24   25 1
    44   25   26 1
    45   26   28 1
    46   26   27 1
    47   26   44 1
    48   27   28 1
    49   27   45 1
    50   27   46 1
    51   28   47 1
    52   28   48 1
@<TRIPOS>MOLECULE
CHEMBL144866
   40    43     0     0     0
SMALL
USER_CHARGES

@<TRIPOS>ATOM
      1 C1         -0.0187    1.5258    0.0104 C.3       1 <0>        -0.1715
      2 C2          0.0021   -0.0041    0.0020 C.3       1 <0>         0.1370
      3 N1         -1.3723   -0.5112    0.0124 N.pl3     1 <0>        -0.5770
      4 C3         -2.0201   -0.7546    1.2117 C.ar      1 <0>         0.4137
      5 C4         -3.2164   -0.0809    1.5074 C.ar      1 <0>        -0.1997
      6 C5         -3.8973   -0.4037    2.6865 C.ar      1 <0>        -0.0008
      7 C6         -3.3375   -1.3443    3.5340 C.ar      1 <0>        -0.1896
      8 C7         -2.1322   -1.9320    3.1962 C.ar      1 <0>         0.1507
      9 N2         -1.5175   -1.6300    2.0691 N.ar      1 <0>        -0.4991
     10 C8         -3.7308    0.9723    0.6278 C.2       1 <0>         0.5767
     11 O1         -4.2313    1.9438    1.1606 O.2       1 <0>        -0.5225
     12 N3         -3.6984    0.9599   -0.6967 N.am      1 <0>        -0.5363
     13 C9         -3.2038   -0.0599   -1.5096 C.ar      1 <0>         0.0807
     14 C10        -2.0455   -0.7488   -1.1851 C.ar      1 <0>         0.3957
     15 N4         -1.5638   -1.6647   -2.0158 N.ar      1 <0>        -0.5016
     16 C11        -2.1794   -1.9778   -3.1446 C.ar      1 <0>         0.3889
     17 C12        -3.3638   -1.3525   -3.5038 C.ar      1 <0>        -0.1458
     18 C13        -3.8830   -0.3851   -2.6800 C.ar      1 <0>        -0.0573
     19 N5         -1.6285   -2.9508   -3.9856 N.pl3     1 <0>        -0.3294
     20 C14        -0.4835   -3.6463   -3.7623 C.2       1 <0>         0.0803
     21 C15        -0.3029   -4.4848   -4.8088 C.2       1 <0>        -0.2615
     22 C16        -1.3662   -4.2990   -5.6992 C.2       1 <0>         0.0700
     23 N6         -2.1627   -3.3859   -5.2054 N.2       1 <0>        -0.2845
     24 C17        -4.2376    2.1395   -1.3779 C.3       1 <0>         0.0577
     25 H1          1.0039    1.9031    0.0027 H         1 <0>         0.0734
     26 H2         -0.5459    1.8868   -0.8726 H         1 <0>         0.0546
     27 H3         -0.5289    1.8773    0.9072 H         1 <0>         0.0554
     28 H4          0.5123   -0.3556   -0.8948 H         1 <0>         0.0827
     29 H5          0.5293   -0.3651    0.8851 H         1 <0>         0.0859
     30 H6         -4.8373    0.0694    2.9294 H         1 <0>         0.1492
     31 H7         -3.8377   -1.6166    4.4516 H         1 <0>         0.1498
     32 H8         -1.6861   -2.6508    3.8675 H         1 <0>         0.1688
     33 H9         -3.8706   -1.6248   -4.4178 H         1 <0>         0.1607
     34 H10        -4.8023    0.1179   -2.9412 H         1 <0>         0.1574
     35 H11         0.1656   -3.5477   -2.9048 H         1 <0>         0.1824
     36 H12         0.5177   -5.1755   -4.9349 H         1 <0>         0.1586
     37 H13        -1.5077   -4.8234   -6.6327 H         1 <0>         0.1960
     38 H14        -4.5890    2.8578   -0.6372 H         1 <0>         0.1074
     39 H15        -3.4567    2.5968   -1.9855 H         1 <0>         0.0710
     40 H16        -5.0682    1.8416   -2.0178 H         1 <0>         0.0721
@<TRIPOS>BOND
     1    1    2 1
     2    1   25 1
     3    1   26 1
     4    1   27 1
     5    2    3 1
     6    2   28 1
     7    2   29 1
     8    3   14 1
     9    3    4 1
    10    4    9 ar
    11    4    5 ar
    12    5    6 ar
    13    5   10 1
    14    6    7 ar
    15    6   30 1
    16    7    8 ar
    17    7   31 1
    18    8    9 ar
    19    8   32 1
    20   10   11 2
    21   10   12 am
    22   12   13 1
    23   12   24 1
    24   13   18 ar
    25   13   14 ar
    26   14   15 ar
    27   15   16 ar
    28   16   17 ar
    29   16   19 1
    30   17   18 ar
    31   17   33 1
    32   18   34 1
    33   19   23 1
    34   19   20 1
    35   20   21 2
    36   20   35 1
    37   21   22 1
    38   21   36 1
    39   22   23 2
    40   22   37 1
    41   24   38 1
    42   24   39 1
    43   24   40 1
@<TRIPOS>MOLECULE
CHEMBL48628
   45    48     0     0     0
SMALL
USER_CHARGES

@<TRIPOS>ATOM
      1 C1         -0.0173    1.4248    0.0099 C.3       1 <0>         0.0260
      2 O1          0.0021   -0.0041    0.0020 O.3       1 <0>        -0.3132
      3 C2          0.6261   -0.6186    1.0420 C.ar      1 <0>         0.1502
      4 C3          1.2020    0.1400    2.0508 C.ar      1 <0>        -0.2080
      5 C4          1.8403   -0.4777    3.1105 C.ar      1 <0>        -0.0691
      6 C5          1.9048   -1.8603    3.1674 C.ar      1 <0>         0.0634
      7 C6          1.3219   -2.6236    2.1541 C.ar      1 <0>         0.2019
      8 C7          0.6814   -2.0044    1.0962 C.ar      1 <0>        -0.1626
      9 N1          1.3897   -4.0212    2.2402 N.pl3     1 <0>        -0.6139
     10 C8          1.4439   -4.6267    3.5791 C.3       1 <0>         0.2774
     11 C9          2.3792   -3.8219    4.4449 C.2       1 <0>         0.5186
     12 O2          2.9824   -4.3680    5.3446 O.2       1 <0>        -0.4852
     13 N2          2.5529   -2.5038    4.2312 N.am      1 <0>        -0.6378
     14 C10         1.9370   -6.0097    3.4745 C.1       1 <0>        -0.2178
     15 C11         2.3303   -7.1127    3.3912 C.1       1 <0>        -0.0279
     16 C12         2.8234   -8.4957    3.2866 C.3       1 <0>        -0.0672
     17 C13         1.8342   -9.6231    3.5884 C.3       1 <0>        -0.1578
     18 C14         2.9518   -9.2997    4.5819 C.3       1 <0>        -0.1576
     19 C15         0.0448   -4.6256    4.1984 C.3       1 <0>         0.4490
     20 F1         -0.8243   -5.3643    3.3883 F         1 <0>        -0.1642
     21 F2          0.0982   -5.2019    5.4720 F         1 <0>        -0.1648
     22 F3         -0.4187   -3.3096    4.3010 F         1 <0>        -0.1664
     23 C16         1.4054   -4.8525    1.0340 C.3       1 <0>         0.1621
     24 C17         2.8515   -5.0738    0.5860 C.3       1 <0>        -0.1747
     25 C18         3.2639   -4.5085   -0.7747 C.3       1 <0>        -0.1730
     26 C19         3.0888   -6.0177   -0.5945 C.3       1 <0>        -0.1703
     27 H1          1.0053    1.8021    0.0021 H         1 <0>         0.0580
     28 H2         -0.5445    1.7859   -0.8732 H         1 <0>         0.1023
     29 H3         -0.5275    1.7763    0.9067 H         1 <0>         0.0583
     30 H4          1.1519    1.2180    2.0080 H         1 <0>         0.1374
     31 H5          2.2883    0.1171    3.8927 H         1 <0>         0.1378
     32 H6          0.2299   -2.5964    0.3139 H         1 <0>         0.1414
     33 H7          3.1326   -1.9945    4.8190 H         1 <0>         0.4212
     34 H8          3.5664   -8.6723    2.5088 H         1 <0>         0.1373
     35 H9          0.8182   -9.3408    3.8643 H         1 <0>         0.1011
     36 H10         1.9261  -10.5418    3.0090 H         1 <0>         0.1101
     37 H11         3.7790  -10.0057    4.6562 H         1 <0>         0.1096
     38 H12         2.6711   -8.8046    5.5115 H         1 <0>         0.1028
     39 H13         0.9406   -5.8145    1.2496 H         1 <0>         0.0871
     40 H14         0.8518   -4.3513    0.2400 H         1 <0>         0.0912
     41 H15         3.5966   -5.0656    1.3815 H         1 <0>         0.1034
     42 H16         2.5050   -3.9790   -1.3506 H         1 <0>         0.0970
     43 H17         4.2806   -4.1282   -0.8745 H         1 <0>         0.0935
     44 H18         3.9902   -6.6303   -0.5758 H         1 <0>         0.0959
     45 H19         2.2146   -6.4811   -1.0520 H         1 <0>         0.0972
@<TRIPOS>BOND
     1    1    2 1
     2    1   27 1
     3    1   28 1
     4    1   29 1
     5    2    3 1
     6    3    8 ar
     7    3    4 ar
     8    4    5 ar
     9    4   30 1
    10    5    6 ar
    11    5   31 1
    12    6   13 1
    13    6    7 ar
    14    7    8 ar
    15    7    9 1
    16    8   32 1
    17    9   10 1
    18    9   23 1
    19   10   11 1
    20   10   14 1
    21   10   19 1
    22   11   12 2
    23   11   13 am
    24   13   33 1
    25   14   15 3
    26   15   16 1
    27   16   18 1
    28   16   17 1
    29   16   34 1
    30   17   18 1
    31   17   35 1
    32   17   36 1
    33   18   37 1
    34   18   38 1
    35   19   20 1
    36   19   21 1
    37   19   22 1
    38   23   24 1
    39   23   39 1
    40   23   40 1
    41   24   26 1
    42   24   25 1
    43   24   41 1
    44   25   26 1
    45   25   42 1
    46   25   43 1
    47   26   44 1
    48   26   45 1
@<TRIPOS>MOLECULE
CHEMBL48628__1
   45    48     0     0     0
SMALL
USER_CHARGES

@<TRIPOS>ATOM
      1 C1         -0.0173    1.4248    0.0099 C.3       1 <0>         0.0258
      2 O1          0.0021   -0.0041    0.0020 O.3       1 <0>        -0.3125
      3 C2          0.6261   -0.6186    1.0420 C.ar      1 <0>         0.1486
      4 C3          1.2020    0.1400    2.0508 C.ar      1 <0>        -0.2077
      5 C4          1.8365   -0.4778    3.1127 C.ar      1 <0>        -0.0701
      6 C5          1.8994   -1.8604    3.1706 C.ar      1 <0>         0.0630
      7 C6          1.3231   -2.6236    2.1534 C.ar      1 <0>         0.1980
      8 C7          0.6814   -2.0044    1.0962 C.ar      1 <0>        -0.1634
      9 N1          1.4104   -4.0207    2.2280 N.pl3     1 <0>        -0.6134
     10 C8          2.5724   -4.6021    2.9164 C.3       1 <0>         0.2765
     11 C9          2.8471   -3.8117    4.1702 C.2       1 <0>         0.5190
     12 O2          3.3567   -4.3599    5.1248 O.2       1 <0>        -0.4854
     13 N2          2.5335   -2.5042    4.2427 N.am      1 <0>        -0.6375
     14 C10         2.2858   -6.0021    3.2697 C.1       1 <0>        -0.2166
     15 C11         2.0572   -7.1186    3.5515 C.1       1 <0>        -0.0305
     16 C12         1.7706   -8.5185    3.9048 C.3       1 <0>        -0.0692
     17 C13         1.6123   -8.8543    5.3891 C.3       1 <0>        -0.1574
     18 C14         2.8649   -9.3016    4.6330 C.3       1 <0>        -0.1563
     19 C15         3.7939   -4.5442    1.9969 C.3       1 <0>         0.4486
     20 F1          4.0666   -3.2122    1.6672 F         1 <0>        -0.1660
     21 F2          4.8984   -5.0977    2.6532 F         1 <0>        -0.1643
     22 F3          3.5335   -5.2697    0.8293 F         1 <0>        -0.1606
     23 C16         0.3761   -4.8748    1.6390 C.3       1 <0>         0.1600
     24 C17         0.7429   -5.1932    0.1881 C.3       1 <0>        -0.1931
     25 C18        -0.1954   -4.6810   -0.9065 C.3       1 <0>        -0.1770
     26 C19        -0.1560   -6.1728   -0.5691 C.3       1 <0>        -0.1692
     27 H1          1.0053    1.8021    0.0021 H         1 <0>         0.0581
     28 H2         -0.5445    1.7859   -0.8732 H         1 <0>         0.1022
     29 H3         -0.5275    1.7763    0.9067 H         1 <0>         0.0579
     30 H4          1.1549    1.2180    2.0062 H         1 <0>         0.1375
     31 H5          2.2828    0.1170    3.8959 H         1 <0>         0.1381
     32 H6          0.2290   -2.5964    0.3144 H         1 <0>         0.1476
     33 H7          2.7486   -2.0027    5.0445 H         1 <0>         0.4215
     34 H8          1.1481   -9.0643    3.1958 H         1 <0>         0.1381
     35 H9          1.7204   -8.0386    6.1040 H         1 <0>         0.1016
     36 H10         0.8854   -9.6211    5.6569 H         1 <0>         0.1100
     37 H11         2.9621  -10.3627    4.4033 H         1 <0>         0.1105
     38 H12         3.7971   -8.7802    4.8504 H         1 <0>         0.1027
     39 H13         0.3035   -5.8021    2.2073 H         1 <0>         0.0895
     40 H14        -0.5822   -4.3561    1.6660 H         1 <0>         0.0887
     41 H15         1.8100   -5.2153   -0.0330 H         1 <0>         0.1213
     42 H16        -1.0740   -4.1172   -0.5930 H         1 <0>         0.0967
     43 H17         0.2543   -4.3659   -1.8480 H         1 <0>         0.0966
     44 H18         0.3198   -6.8391   -1.2887 H         1 <0>         0.0967
     45 H19        -1.0086   -6.5905   -0.0337 H         1 <0>         0.0954
@<TRIPOS>BOND
     1    1    2 1
     2    1   27 1
     3    1   28 1
     4    1   29 1
     5    2    3 1
     6    3    8 ar
     7    3    4 ar
     8    4    5 ar
     9    4   30 1
    10    5    6 ar
    11    5   31 1
    12    6   13 1
    13    6    7 ar
    14    7    8 ar
    15    7    9 1
    16    8   32 1
    17    9   10 1
    18    9   23 1
    19   10   11 1
    20   10   14 1
    21   10   19 1
    22   11   12 2
    23   11   13 am
    24   13   33 1
    25   14   15 3
    26   15   16 1
    27   16   18 1
    28   16   17 1
    29   16   34 1
    30   17   18 1
    31   17   35 1
    32   17   36 1
    33   18   37 1
    34   18   38 1
    35   19   20 1
    36   19   21 1
    37   19   22 1
    38   23   24 1
    39   23   39 1
    40   23   40 1
    41   24   26 1
    42   24   25 1
    43   24   41 1
    44   25   26 1
    45   25   42 1
    46   25   43 1
    47   26   44 1
    48   26   45 1
@<TRIPOS>MOLECULE
CHEMBL133772
   69    70     0     0     0
SMALL
USER_CHARGES

@<TRIPOS>ATOM
      1 C1         -0.0187    1.5258    0.0104 C.3       1 <0>        -0.1534
      2 C2          0.0021   -0.0041    0.0020 C.3       1 <0>         0.0803
      3 O1          0.6709   -0.4649   -1.1737 O.3       1 <0>        -0.3669
      4 C3          0.7758   -1.7975   -1.3346 C.2       1 <0>         0.6468
      5 O2          0.3120   -2.5487   -0.4996 O.2       1 <0>        -0.5690
      6 N1          1.3951   -2.2983   -2.4219 N.am      1 <0>        -0.7103
      7 C4          1.5092   -3.7484   -2.5970 C.3       1 <0>         0.1414
      8 C5          2.2494   -4.0478   -3.9021 C.3       1 <0>        -0.1143
      9 C6          2.3668   -5.5394   -4.0822 C.2       1 <0>        -0.1090
     10 C7          1.9150   -6.1157   -5.2026 C.2       1 <0>        -0.0469
     11 C8          1.2991   -5.2866   -6.2665 C.ar      1 <0>        -0.0622
     12 C9          0.1049   -4.6060   -6.0175 C.ar      1 <0>        -0.0579
     13 C10        -0.4729   -3.8337   -7.0017 C.ar      1 <0>        -0.1116
     14 C11         0.1280   -3.7260   -8.2484 C.ar      1 <0>         0.1648
     15 C12         1.3275   -4.4051   -8.5085 C.ar      1 <0>        -0.1432
     16 C13         1.9133   -5.1826   -7.5087 C.ar      1 <0>        -0.0379
     17 C14         1.9691   -4.2940   -9.8312 C.2       1 <0>         0.5040
     18 O3          1.4588   -3.6132  -10.6987 O.2       1 <0>        -0.4836
     19 O4          3.1213   -4.9475  -10.0781 O.3       1 <0>        -0.3515
     20 C15         3.6873   -4.7949  -11.3814 C.3       1 <0>         0.0355
     21 O5         -0.4444   -2.9653   -9.2142 O.3       1 <0>        -0.3203
     22 C16        -0.0585   -1.5905   -9.2709 C.3       1 <0>         0.0486
     23 C17        -1.7618   -3.1040   -6.7238 C.3       1 <0>        -0.1141
     24 C18         2.0305   -7.5834   -5.3798 C.ar      1 <0>        -0.0635
     25 C19         3.2912   -8.1792   -5.4639 C.ar      1 <0>        -0.0561
     26 C20         3.4057   -9.5425   -5.6287 C.ar      1 <0>        -0.1125
     27 C21         2.2687  -10.3343   -5.7118 C.ar      1 <0>         0.1645
     28 C22         0.9981   -9.7460   -5.6280 C.ar      1 <0>        -0.1438
     29 C23         0.8846   -8.3658   -5.4564 C.ar      1 <0>        -0.0362
     30 C24        -0.2124  -10.5829   -5.7163 C.2       1 <0>         0.5043
     31 O6         -0.1106  -11.7849   -5.8619 O.2       1 <0>        -0.4839
     32 O7         -1.4316  -10.0149   -5.6355 O.3       1 <0>        -0.3514
     33 C25        -2.5606  -10.8859   -5.7287 C.3       1 <0>         0.0355
     34 O8          2.3861  -11.6755   -5.8744 O.3       1 <0>        -0.3207
     35 C26         2.4557  -12.4692   -4.6881 C.3       1 <0>         0.0485
     36 C27         4.7701  -10.1759   -5.7193 C.3       1 <0>        -0.1137
     37 H1          1.0039    1.9031    0.0027 H         1 <0>         0.0668
     38 H2         -0.5459    1.8868   -0.8726 H         1 <0>         0.0668
     39 H3         -0.5289    1.8773    0.9072 H         1 <0>         0.0830
     40 H4          0.5293   -0.3651    0.8851 H         1 <0>         0.0685
     41 H5         -1.0205   -0.3814    0.0098 H         1 <0>         0.0686
     42 H6          1.7653   -1.6987   -3.0884 H         1 <0>         0.4078
     43 H7          2.0628   -4.1730   -1.7596 H         1 <0>         0.0754
     44 H8          0.5130   -4.1892   -2.6349 H         1 <0>         0.0742
     45 H9          1.6958   -3.6231   -4.7395 H         1 <0>         0.0859
     46 H10         3.2456   -3.6069   -3.8642 H         1 <0>         0.0894
     47 H11         2.8153   -6.1432   -3.3073 H         1 <0>         0.1296
     48 H12        -0.3677   -4.6856   -5.0497 H         1 <0>         0.1374
     49 H13         2.8389   -5.7048   -7.7009 H         1 <0>         0.1437
     50 H14         2.9804   -5.1549  -12.1289 H         1 <0>         0.0622
     51 H15         3.9031   -3.7420  -11.5627 H         1 <0>         0.0612
     52 H16         4.6101   -5.3714  -11.4465 H         1 <0>         0.1042
     53 H17        -0.3084   -1.1038   -8.3281 H         1 <0>         0.0451
     54 H18         1.0157   -1.5214   -9.4419 H         1 <0>         0.0468
     55 H19        -0.5886   -1.0977  -10.0859 H         1 <0>         0.0976
     56 H20        -1.5401   -2.1124   -6.3293 H         1 <0>         0.0722
     57 H21        -2.3317   -3.0084   -7.6480 H         1 <0>         0.0778
     58 H22        -2.3458   -3.6635   -5.9931 H         1 <0>         0.0732
     59 H23         4.1798   -7.5687   -5.4000 H         1 <0>         0.1382
     60 H24        -0.0906   -7.9068   -5.3870 H         1 <0>         0.1435
     61 H25        -2.5237  -11.6164   -4.9205 H         1 <0>         0.0613
     62 H26        -3.4776  -10.3020   -5.6490 H         1 <0>         0.1041
     63 H27        -2.5418  -11.4038   -6.6876 H         1 <0>         0.0621
     64 H28         2.5478  -13.5209   -4.9594 H         1 <0>         0.0977
     65 H29         3.3228  -12.1684   -4.1000 H         1 <0>         0.0453
     66 H30         1.5496  -12.3237   -4.0999 H         1 <0>         0.0469
     67 H31         5.1101  -10.4509   -4.7209 H         1 <0>         0.0725
     68 H32         4.7158  -11.0680   -6.3433 H         1 <0>         0.0774
     69 H33         5.4713   -9.4668   -6.1594 H         1 <0>         0.0733
@<TRIPOS>BOND
     1    1    2 1
     2    1   37 1
     3    1   38 1
     4    1   39 1
     5    2    3 1
     6    2   40 1
     7    2   41 1
     8    3    4 1
     9    4    5 2
    10    4    6 am
    11    6    7 1
    12    6   42 1
    13    7    8 1
    14    7   43 1
    15    7   44 1
    16    8    9 1
    17    8   45 1
    18    8   46 1
    19    9   10 2
    20    9   47 1
    21   10   11 1
    22   10   24 1
    23   11   16 ar
    24   11   12 ar
    25   12   13 ar
    26   12   48 1
    27   13   14 ar
    28   13   23 1
    29   14   15 ar
    30   14   21 1
    31   15   16 ar
    32   15   17 1
    33   16   49 1
    34   17   18 2
    35   17   19 1
    36   19   20 1
    37   20   50 1
    38   20   51 1
    39   20   52 1
    40   21   22 1
    41   22   53 1
    42   22   54 1
    43   22   55 1
    44   23   56 1
    45   23   57 1
    46   23   58 1
    47   24   29 ar
    48   24   25 ar
    49   25   26 ar
    50   25   59 1
    51   26   27 ar
    52   26   36 1
    53   27   28 ar
    54   27   34 1
    55   28   29 ar
    56   28   30 1
    57   29   60 1
    58   30   31 2
    59   30   32 1
    60   32   33 1
    61   33   61 1
    62   33   62 1
    63   33   63 1
    64   34   35 1
    65   35   64 1
    66   35   65 1
    67   35   66 1
    68   36   67 1
    69   36   68 1
    70   36   69 1
@<TRIPOS>MOLECULE
CHEMBL79696
   37    40     0     0     0
SMALL
USER_CHARGES

@<TRIPOS>ATOM
      1 C1         -0.0167    1.3794    0.0096 C.ar      1 <0>        -0.0606
      2 C2          1.1662    2.0932    0.0022 C.ar      1 <0>        -0.1452
      3 C3          2.3798    1.4195   -0.0131 C.ar      1 <0>         0.1847
      4 C4          2.3898    0.0286   -0.0207 C.ar      1 <0>        -0.1200
      5 C5          1.2116   -0.6809   -0.0136 C.ar      1 <0>        -0.0420
      6 C6          0.0021   -0.0041    0.0020 C.ar      1 <0>        -0.0635
      7 Cl1        -1.4895   -0.8923    0.0121 Cl        1 <0>        -0.0572
      8 C7          3.7286   -0.6723   -0.0372 C.3       1 <0>         0.3655
      9 N1          4.9281    0.1824   -0.0441 N.am      1 <0>        -0.7066
     10 C8          4.7807    1.5195   -0.0355 C.2       1 <0>         0.7126
     11 O1          5.7797    2.2126   -0.0417 O.2       1 <0>        -0.5668
     12 N2          3.5854    2.1230   -0.0213 N.am      1 <0>        -0.6603
     13 C9          3.7765   -1.5315   -1.2315 C.1       1 <0>        -0.1502
     14 C10         3.8147   -2.2167   -2.1840 C.1       1 <0>        -0.1074
     15 C11         3.8613   -3.0526   -3.3458 C.ar      1 <0>         0.0570
     16 C12         2.7814   -3.1099   -4.2345 C.ar      1 <0>        -0.1491
     17 C13         2.8689   -3.9285   -5.3411 C.ar      1 <0>         0.1050
     18 N3          3.9501   -4.6505   -5.5661 N.ar      1 <0>        -0.4783
     19 C14         4.9899   -4.6260   -4.7543 C.ar      1 <0>         0.1056
     20 C15         4.9903   -3.8306   -3.6274 C.ar      1 <0>        -0.1490
     21 C16         3.8020   -1.5786    1.1932 C.3       1 <0>        -0.1715
     22 C17         3.6670   -3.0861    0.9693 C.3       1 <0>        -0.1679
     23 C18         5.0268   -2.4852    1.3308 C.3       1 <0>        -0.1662
     24 H1         -0.9606    1.9038    0.0260 H         1 <0>         0.1451
     25 H2          1.1467    3.1730    0.0078 H         1 <0>         0.1455
     26 H3          1.2287   -1.7608   -0.0199 H         1 <0>         0.1440
     27 H4          5.8133   -0.2140   -0.0544 H         1 <0>         0.4318
     28 H5          3.5560    3.0925   -0.0157 H         1 <0>         0.4288
     29 H6          1.8930   -2.5222   -4.0562 H         1 <0>         0.1406
     30 H7          2.0409   -3.9796   -6.0327 H         1 <0>         0.1636
     31 H8          5.8544   -5.2336   -4.9776 H         1 <0>         0.1633
     32 H9          5.8468   -3.8120   -2.9698 H         1 <0>         0.1392
     33 H10         3.3767   -1.1652    2.1077 H         1 <0>         0.1236
     34 H11         3.1525   -3.6648    1.7365 H         1 <0>         0.1046
     35 H12         3.5258   -3.4322   -0.0546 H         1 <0>         0.1014
     36 H13         5.7803   -2.4360    0.5446 H         1 <0>         0.0949
     37 H14         5.4070   -2.6686    2.3357 H         1 <0>         0.1050
@<TRIPOS>BOND
     1    1    6 ar
     2    1    2 ar
     3    1   24 1
     4    2    3 ar
     5    2   25 1
     6    3   12 1
     7    3    4 ar
     8    4    5 ar
     9    4    8 1
    10    5    6 ar
    11    5   26 1
    12    6    7 1
    13    8    9 1
    14    8   13 1
    15    8   21 1
    16    9   10 am
    17    9   27 1
    18   10   11 2
    19   10   12 am
    20   12   28 1
    21   13   14 3
    22   14   15 1
    23   15   20 ar
    24   15   16 ar
    25   16   17 ar
    26   16   29 1
    27   17   18 ar
    28   17   30 1
    29   18   19 ar
    30   19   20 ar
    31   19   31 1
    32   20   32 1
    33   21   23 1
    34   21   22 1
    35   21   33 1
    36   22   23 1
    37   22   34 1
    38   22   35 1
    39   23   36 1
    40   23   37 1
@<TRIPOS>MOLECULE
CHEMBL79696__1
   37    40     0     0     0
SMALL
USER_CHARGES

@<TRIPOS>ATOM
      1 C1         -0.0167    1.3794    0.0096 C.ar      1 <0>        -0.0605
      2 C2          1.1662    2.0932    0.0022 C.ar      1 <0>        -0.1452
      3 C3          2.3798    1.4195   -0.0131 C.ar      1 <0>         0.1849
      4 C4          2.3898    0.0286   -0.0207 C.ar      1 <0>        -0.1201
      5 C5          1.2116   -0.6809   -0.0136 C.ar      1 <0>        -0.0424
      6 C6          0.0021   -0.0041    0.0020 C.ar      1 <0>        -0.0636
      7 Cl1        -1.4895   -0.8923    0.0121 Cl        1 <0>        -0.0572
      8 C7          3.7286   -0.6723   -0.0372 C.3       1 <0>         0.3654
      9 N1          4.9281    0.1824   -0.0441 N.am      1 <0>        -0.7065
     10 C8          4.7807    1.5195   -0.0355 C.2       1 <0>         0.7127
     11 O1          5.7797    2.2126   -0.0417 O.2       1 <0>        -0.5668
     12 N2          3.5854    2.1230   -0.0213 N.am      1 <0>        -0.6603
     13 C9          3.7993   -1.5443    1.1466 C.1       1 <0>        -0.1501
     14 C10         3.8556   -2.2397    2.0907 C.1       1 <0>        -0.1073
     15 C11         3.9243   -3.0880    3.2424 C.ar      1 <0>         0.0565
     16 C12         2.8570   -3.1638    4.1447 C.ar      1 <0>        -0.1486
     17 C13         2.9658   -3.9939    5.2409 C.ar      1 <0>         0.1053
     18 N3          4.0559   -4.7090    5.4438 N.ar      1 <0>        -0.4784
     19 C14         5.0845   -4.6672    4.6185 C.ar      1 <0>         0.1050
     20 C15         5.0584   -3.8689    3.4940 C.ar      1 <0>        -0.1493
     21 C16         3.7784   -1.5653   -1.2786 C.3       1 <0>        -0.1715
     22 C17         3.6475   -3.0752   -1.0684 C.3       1 <0>        -0.1678
     23 C18         5.0002   -2.4703   -1.4493 C.3       1 <0>        -0.1660
     24 H1         -0.9606    1.9038    0.0260 H         1 <0>         0.1451
     25 H2          1.1467    3.1730    0.0078 H         1 <0>         0.1454
     26 H3          1.2287   -1.7608   -0.0199 H         1 <0>         0.1441
     27 H4          5.8133   -0.2140   -0.0544 H         1 <0>         0.4316
     28 H5          3.5560    3.0925   -0.0157 H         1 <0>         0.4288
     29 H6          1.9620   -2.5807    3.9853 H         1 <0>         0.1405
     30 H7          2.1476   -4.0592    5.9428 H         1 <0>         0.1635
     31 H8          5.9569   -5.2698    4.8238 H         1 <0>         0.1634
     32 H9          5.9021   -3.8432    2.8203 H         1 <0>         0.1400
     33 H10         3.3356   -1.1421   -2.1802 H         1 <0>         0.1235
     34 H11         3.5259   -3.4322   -0.0457 H         1 <0>         0.1020
     35 H12         3.1183   -3.6456   -1.8317 H         1 <0>         0.1042
     36 H13         5.3610   -2.6427   -2.4633 H         1 <0>         0.1049
     37 H14         5.7686   -2.4294   -0.6772 H         1 <0>         0.0949
@<TRIPOS>BOND
     1    1    6 ar
     2    1    2 ar
     3    1   24 1
     4    2    3 ar
     5    2   25 1
     6    3   12 1
     7    3    4 ar
     8    4    5 ar
     9    4    8 1
    10    5    6 ar
    11    5   26 1
    12    6    7 1
    13    8    9 1
    14    8   13 1
    15    8   21 1
    16    9   10 am
    17    9   27 1
    18   10   11 2
    19   10   12 am
    20   12   28 1
    21   13   14 3
    22   14   15 1
    23   15   20 ar
    24   15   16 ar
    25   16   17 ar
    26   16   29 1
    27   17   18 ar
    28   17   30 1
    29   18   19 ar
    30   19   20 ar
    31   19   31 1
    32   20   32 1
    33   21   23 1
    34   21   22 1
    35   21   33 1
    36   22   23 1
    37   22   34 1
    38   22   35 1
    39   23   36 1
    40   23   37 1
@<TRIPOS>MOLECULE
CHEMBL336237
   40    41     0     0     0
SMALL
USER_CHARGES

@<TRIPOS>ATOM
      1 C1         -0.4660    2.2334   -0.2873 C.3       1 <0>        -0.1458
      2 C2         -0.3245    0.7419    0.0230 C.3       1 <0>        -0.0785
      3 C3          0.5628    0.0960   -1.0097 C.2       1 <0>        -0.1052
      4 C4          1.8809   -0.0582   -0.7675 C.2       1 <0>         0.0886
      5 N1          2.6991   -0.6395   -1.6871 N.am      1 <0>        -0.5872
      6 C5          2.2203   -1.0786   -2.8658 C.2       1 <0>         0.5162
      7 C6          0.8568   -0.9414   -3.1664 C.2       1 <0>         0.1665
      8 C7          0.0160   -0.3544   -2.2299 C.2       1 <0>        -0.1653
      9 S1         -1.7043   -0.1685   -2.5629 S.3       1 <0>         0.0134
     10 C8         -2.4827   -1.2251   -1.3872 C.ar      1 <0>        -0.0938
     11 C9         -1.7134   -2.0503   -0.5757 C.ar      1 <0>        -0.1238
     12 C10        -2.3268   -2.8770    0.3445 C.ar      1 <0>        -0.0659
     13 C11        -3.7051   -2.8848    0.4589 C.ar      1 <0>        -0.1232
     14 C12        -4.4738   -2.0649   -0.3470 C.ar      1 <0>        -0.0651
     15 C13        -3.8669   -1.2310   -1.2652 C.ar      1 <0>        -0.1052
     16 C14        -5.9753   -2.0773   -0.2190 C.3       1 <0>        -0.1160
     17 C15        -1.4935   -3.7723    1.2250 C.3       1 <0>        -0.1159
     18 N2          0.3480   -1.3969   -4.3958 N.pl3     1 <0>        -0.8353
     19 O1          2.9743   -1.5972   -3.6755 O.2       1 <0>        -0.5454
     20 C16         2.4562    0.4208    0.5404 C.3       1 <0>        -0.1182
     21 H1          0.5171    2.7036   -0.2669 H         1 <0>         0.0527
     22 H2         -0.9082    2.3585   -1.2757 H         1 <0>         0.0632
     23 H3         -1.1078    2.7006    0.4597 H         1 <0>         0.0581
     24 H4          0.1177    0.6168    1.0114 H         1 <0>         0.0742
     25 H5         -1.3076    0.2717    0.0026 H         1 <0>         0.0804
     26 H6         -0.6371   -2.0452   -0.6650 H         1 <0>         0.1234
     27 H7         -4.1822   -3.5330    1.1791 H         1 <0>         0.1236
     28 H8         -4.4675   -0.5875   -1.8909 H         1 <0>         0.1266
     29 H9         -6.2833   -1.3356    0.5180 H         1 <0>         0.0732
     30 H10        -6.4242   -1.8394   -1.1833 H         1 <0>         0.0681
     31 H11        -6.3045   -3.0659    0.1011 H         1 <0>         0.0683
     32 H12        -1.1650   -3.2152    2.1024 H         1 <0>         0.0725
     33 H13        -2.0896   -4.6286    1.5404 H         1 <0>         0.0682
     34 H14        -0.6231   -4.1206    0.6689 H         1 <0>         0.0652
     35 H15         0.9535   -1.7168   -5.0828 H         1 <0>         0.4097
     36 H16        -0.6086   -1.3913   -4.5568 H         1 <0>         0.4113
     37 H17         3.6436   -0.7387   -1.4896 H         1 <0>         0.4185
     38 H18         2.4105   -0.3841    1.2740 H         1 <0>         0.0825
     39 H19         3.4941    0.7195    0.3931 H         1 <0>         0.0735
     40 H20         1.8803    1.2734    0.9002 H         1 <0>         0.0923
@<TRIPOS>BOND
     1    1    2 1
     2    1   21 1
     3    1   22 1
     4    1   23 1
     5    2   24 1
     6    2   25 1
     7    2    3 1
     8    3    4 2
     9    3    8 1
    10    4    5 1
    11    4   20 1
    12    5    6 am
    13    5   37 1
    14    6   19 2
    15    6    7 1
    16    7    8 2
    17    7   18 1
    18    8    9 1
    19    9   10 1
    20   10   15 ar
    21   10   11 ar
    22   11   12 ar
    23   11   26 1
    24   12   13 ar
    25   12   17 1
    26   13   14 ar
    27   13   27 1
    28   14   15 ar
    29   14   16 1
    30   15   28 1
    31   16   29 1
    32   16   30 1
    33   16   31 1
    34   17   32 1
    35   17   33 1
    36   17   34 1
    37   18   35 1
    38   18   36 1
    39   20   38 1
    40   20   39 1
    41   20   40 1
@<TRIPOS>MOLECULE
CHEMBL309462
   37    40     0     0     0
SMALL
USER_CHARGES

@<TRIPOS>ATOM
      1 C1         -0.0167    1.3787    0.0096 C.ar      1 <0>        -0.1697
      2 C2          1.1809    2.0726    0.0019 C.ar      1 <0>        -0.0492
      3 C3          2.3723    1.3390   -0.0134 C.ar      1 <0>        -0.0419
      4 C4          2.3057   -0.0548   -0.0203 C.ar      1 <0>         0.1289
      5 N1          1.1411   -0.6696   -0.0129 N.ar      1 <0>        -0.4806
      6 C5          0.0021   -0.0041    0.0020 C.ar      1 <0>         0.1093
      7 C6          3.6388    2.0073   -0.0224 C.1       1 <0>        -0.0951
      8 C7          4.6770    2.5552   -0.0297 C.1       1 <0>        -0.1634
      9 C8          5.9788    3.2422   -0.0390 C.3       1 <0>         0.3681
     10 C9          7.0619    2.1884   -0.0548 C.ar      1 <0>        -0.1164
     11 C10         7.1320    1.2502   -1.0588 C.ar      1 <0>        -0.0475
     12 C11         8.1395    0.2991   -1.0408 C.ar      1 <0>        -0.0621
     13 C12         9.0694    0.2950   -0.0158 C.ar      1 <0>        -0.0618
     14 C13         8.9999    1.2360    0.9928 C.ar      1 <0>        -0.1438
     15 C14         7.9926    2.1916    0.9784 C.ar      1 <0>         0.1850
     16 N2          7.9063    3.1513    1.9883 N.am      1 <0>        -0.6595
     17 C15         6.9545    4.0928    2.0191 C.2       1 <0>         0.7136
     18 O1          6.9568    4.8894    2.9377 O.2       1 <0>        -0.5667
     19 N3          5.9958    4.1984    1.0812 N.am      1 <0>        -0.7095
     20 Cl1         8.2348   -0.8881   -2.3039 Cl        1 <0>        -0.0580
     21 C16         6.0779    4.0392   -1.3412 C.3       1 <0>        -0.1726
     22 C17         6.4541    5.5186   -1.2372 C.3       1 <0>        -0.1641
     23 C18         5.0211    5.1168   -1.5921 C.3       1 <0>        -0.1684
     24 H1         -0.9559    1.9116    0.0259 H         1 <0>         0.1436
     25 H2          1.1954    3.1524    0.0072 H         1 <0>         0.1402
     26 H3          3.2169   -0.6344   -0.0321 H         1 <0>         0.1595
     27 H4         -0.9309   -0.5480    0.0084 H         1 <0>         0.1621
     28 H5          6.4048    1.2550   -1.8572 H         1 <0>         0.1432
     29 H6          9.8533   -0.4479   -0.0044 H         1 <0>         0.1449
     30 H7          9.7273    1.2285    1.7910 H         1 <0>         0.1453
     31 H8          8.5655    3.1357    2.6996 H         1 <0>         0.4288
     32 H9          5.3244    4.8958    1.1417 H         1 <0>         0.4315
     33 H10         6.4467    3.4853   -2.2045 H         1 <0>         0.1239
     34 H11         6.6310    5.9241   -0.2410 H         1 <0>         0.1013
     35 H12         7.0707    5.9382   -2.0321 H         1 <0>         0.1024
     36 H13         4.6949    5.2721   -2.6205 H         1 <0>         0.1033
     37 H14         4.2553    5.2579   -0.8294 H         1 <0>         0.0949
@<TRIPOS>BOND
     1    1    6 ar
     2    1    2 ar
     3    1   24 1
     4    2    3 ar
     5    2   25 1
     6    3    4 ar
     7    3    7 1
     8    4    5 ar
     9    4   26 1
    10    5    6 ar
    11    6   27 1
    12    7    8 3
    13    8    9 1
    14    9   19 1
    15    9   10 1
    16    9   21 1
    17   10   15 ar
    18   10   11 ar
    19   11   12 ar
    20   11   28 1
    21   12   13 ar
    22   12   20 1
    23   13   14 ar
    24   13   29 1
    25   14   15 ar
    26   14   30 1
    27   15   16 1
    28   16   17 am
    29   16   31 1
    30   17   18 2
    31   17   19 am
    32   19   32 1
    33   21   23 1
    34   21   22 1
    35   21   33 1
    36   22   23 1
    37   22   34 1
    38   22   35 1
    39   23   36 1
    40   23   37 1
@<TRIPOS>MOLECULE
CHEMBL309462__1
   37    40     0     0     0
SMALL
USER_CHARGES

@<TRIPOS>ATOM
      1 C1         -0.0167    1.3787    0.0096 C.ar      1 <0>        -0.1692
      2 C2          1.1809    2.0726    0.0019 C.ar      1 <0>        -0.0492
      3 C3          2.3723    1.3390   -0.0134 C.ar      1 <0>        -0.0431
      4 C4          2.3057   -0.0548   -0.0203 C.ar      1 <0>         0.1297
      5 N1          1.1411   -0.6696   -0.0129 N.ar      1 <0>        -0.4802
      6 C5          0.0021   -0.0041    0.0020 C.ar      1 <0>         0.1105
      7 C6          3.6388    2.0073   -0.0224 C.1       1 <0>        -0.0974
      8 C7          4.6770    2.5552   -0.0297 C.1       1 <0>        -0.1632
      9 C8          5.9788    3.2422   -0.0390 C.3       1 <0>         0.3667
     10 C9          7.0619    2.1884   -0.0548 C.ar      1 <0>        -0.1190
     11 C10         7.1509    1.2396    0.9376 C.ar      1 <0>        -0.0417
     12 C11         8.1572    0.2882    0.8899 C.ar      1 <0>        -0.0636
     13 C12         9.0677    0.2952   -0.1525 C.ar      1 <0>        -0.0613
     14 C13         8.9791    1.2469   -1.1496 C.ar      1 <0>        -0.1455
     15 C14         7.9723    2.2022   -1.1059 C.ar      1 <0>         0.1839
     16 N2          7.8664    3.1719   -2.1042 N.am      1 <0>        -0.6605
     17 C15         6.9137    4.1130   -2.1074 C.2       1 <0>         0.7124
     18 O1          6.8972    4.9179   -3.0187 O.2       1 <0>        -0.5680
     19 N3          5.9741    4.2096   -1.1495 N.am      1 <0>        -0.7063
     20 Cl1         8.2764   -0.9123    2.1382 Cl        1 <0>        -0.0575
     21 C16         6.1033    4.0261    1.2691 C.3       1 <0>        -0.1713
     22 C17         5.1052    3.7044    2.3832 C.3       1 <0>        -0.1670
     23 C18         4.9885    5.0179    1.6072 C.3       1 <0>        -0.1666
     24 H1         -0.9559    1.9116    0.0259 H         1 <0>         0.1435
     25 H2          1.1954    3.1524    0.0072 H         1 <0>         0.1385
     26 H3          3.2169   -0.6344   -0.0321 H         1 <0>         0.1608
     27 H4         -0.9309   -0.5480    0.0084 H         1 <0>         0.1625
     28 H5          6.4398    1.2366    1.7504 H         1 <0>         0.1444
     29 H6          9.8511   -0.4474   -0.1866 H         1 <0>         0.1447
     30 H7          9.6917    1.2485   -1.9610 H         1 <0>         0.1450
     31 H8          8.5117    3.1636   -2.8284 H         1 <0>         0.4284
     32 H9          5.3016    4.9075   -1.1899 H         1 <0>         0.4317
     33 H10         7.1188    4.2908    1.5637 H         1 <0>         0.1226
     34 H11         4.3598    2.9344    2.1842 H         1 <0>         0.1013
     35 H12         5.4639    3.7573    3.4111 H         1 <0>         0.1045
     36 H13         5.2705    5.9349    2.1246 H         1 <0>         0.1042
     37 H14         4.1663    5.1120    0.8977 H         1 <0>         0.0953
@<TRIPOS>BOND
     1    1    6 ar
     2    1    2 ar
     3    1   24 1
     4    2    3 ar
     5    2   25 1
     6    3    4 ar
     7    3    7 1
     8    4    5 ar
     9    4   26 1
    10    5    6 ar
    11    6   27 1
    12    7    8 3
    13    8    9 1
    14    9   19 1
    15    9   10 1
    16    9   21 1
    17   10   15 ar
    18   10   11 ar
    19   11   12 ar
    20   11   28 1
    21   12   13 ar
    22   12   20 1
    23   13   14 ar
    24   13   29 1
    25   14   15 ar
    26   14   30 1
    27   15   16 1
    28   16   17 am
    29   16   31 1
    30   17   18 2
    31   17   19 am
    32   19   32 1
    33   21   23 1
    34   21   22 1
    35   21   33 1
    36   22   23 1
    37   22   34 1
    38   22   35 1
    39   23   36 1
    40   23   37 1
@<TRIPOS>MOLECULE
CHEMBL315289
   38    41     0     0     0
SMALL
USER_CHARGES

@<TRIPOS>ATOM
      1 C1         -0.0184    1.5028    0.0103 C.3       1 <0>        -0.1164
      2 C2          0.0021   -0.0041    0.0020 C.ar      1 <0>        -0.0779
      3 C3          0.0057   -0.6887   -1.1989 C.ar      1 <0>        -0.1099
      4 C4          0.0245   -2.0708   -1.2065 C.ar      1 <0>        -0.0774
      5 C5          0.0400   -2.7685   -0.0132 C.ar      1 <0>        -0.0927
      6 C6          0.0373   -2.0839    1.1877 C.ar      1 <0>        -0.0752
      7 C7          0.0229   -0.7016    1.1953 C.ar      1 <0>        -0.1033
      8 C8          0.0537   -2.8444    2.4887 C.3       1 <0>         0.2580
      9 C9          1.4399   -3.2198    2.9222 C.ar      1 <0>        -0.0507
     10 C10         2.3918   -4.0802    2.4238 C.ar      1 <0>        -0.0860
     11 C11         3.6202   -4.1941    3.0516 C.ar      1 <0>        -0.0814
     12 C12         3.8965   -3.4457    4.1823 C.ar      1 <0>        -0.1176
     13 C13         2.9468   -2.5885    4.6977 C.ar      1 <0>        -0.0424
     14 C14         1.7021   -2.4749    4.0763 C.ar      1 <0>        -0.1465
     15 C15         0.4904   -1.7026    4.4148 C.2       1 <0>         0.5954
     16 O1          0.4253   -0.8542    5.2828 O.2       1 <0>        -0.5020
     17 N1         -0.5300   -2.0740    3.6232 N.am      1 <0>        -0.6218
     18 C16        -1.9969   -2.0602    3.4960 C.3       1 <0>         0.1269
     19 C17        -2.5152   -3.5152    3.3122 C.3       1 <0>        -0.0824
     20 S1         -1.0688   -4.3010    2.4787 S.3       1 <0>        -0.2501
     21 C18         0.0274   -2.8172   -2.5157 C.3       1 <0>        -0.1159
     22 H1          1.0042    1.8801    0.0026 H         1 <0>         0.0729
     23 H2         -0.5455    1.8639   -0.8728 H         1 <0>         0.0695
     24 H3         -0.5286    1.8543    0.9071 H         1 <0>         0.0665
     25 H4         -0.0064   -0.1436   -2.1312 H         1 <0>         0.1257
     26 H5          0.0540   -3.8484   -0.0191 H         1 <0>         0.1292
     27 H6          0.0245   -0.1667    2.1335 H         1 <0>         0.1189
     28 H7          2.1798   -4.6672    1.5424 H         1 <0>         0.1322
     29 H8          4.3653   -4.8694    2.6577 H         1 <0>         0.1387
     30 H9          4.8595   -3.5335    4.6633 H         1 <0>         0.1391
     31 H10         3.1659   -2.0059    5.5803 H         1 <0>         0.1373
     32 H11        -2.4357   -1.6291    4.3959 H         1 <0>         0.1072
     33 H12        -2.2812   -1.4611    2.6310 H         1 <0>         0.0936
     34 H13        -2.7165   -3.9850    4.2749 H         1 <0>         0.1079
     35 H14        -3.3978   -3.5398    2.6730 H         1 <0>         0.1204
     36 H15         1.0557   -2.9831   -2.8370 H         1 <0>         0.0727
     37 H16        -0.4727   -3.7772   -2.3878 H         1 <0>         0.0693
     38 H17        -0.4985   -2.2310   -3.2693 H         1 <0>         0.0684
@<TRIPOS>BOND
     1    1    2 1
     2    1   22 1
     3    1   23 1
     4    1   24 1
     5    2    7 ar
     6    2    3 ar
     7    3    4 ar
     8    3   25 1
     9    4    5 ar
    10    4   21 1
    11    5    6 ar
    12    5   26 1
    13    6    7 ar
    14    6    8 1
    15    7   27 1
    16    8   17 1
    17    8   20 1
    18    8    9 1
    19    9   14 ar
    20    9   10 ar
    21   10   11 ar
    22   10   28 1
    23   11   12 ar
    24   11   29 1
    25   12   13 ar
    26   12   30 1
    27   13   14 ar
    28   13   31 1
    29   14   15 1
    30   15   16 2
    31   15   17 am
    32   17   18 1
    33   18   19 1
    34   18   32 1
    35   18   33 1
    36   19   20 1
    37   19   34 1
    38   19   35 1
    39   21   36 1
    40   21   37 1
    41   21   38 1
@<TRIPOS>MOLECULE
CHEMBL128931
   41    42     0     0     0
SMALL
USER_CHARGES

@<TRIPOS>ATOM
      1 C1          0.0860    1.3903    0.1872 C.3       1 <0>        -0.1502
      2 C2         -0.0357   -0.1270    0.0327 C.3       1 <0>        -0.0795
      3 C3          0.5791   -0.5496   -1.2767 C.2       1 <0>        -0.1005
      4 C4          1.8634   -0.9499   -1.3120 C.2       1 <0>         0.0872
      5 N1          2.4632   -1.3406   -2.4695 N.am      1 <0>        -0.5915
      6 C5          1.7908   -1.3425   -3.6370 C.2       1 <0>         0.5205
      7 C6          0.3884   -0.9161   -3.6583 C.2       1 <0>         0.1520
      8 C7         -0.2013   -0.5274   -2.4578 C.2       1 <0>        -0.1847
      9 C8         -1.6121   -0.0941   -2.4187 C.2       1 <0>         0.4564
     10 O1         -2.4685   -0.8490   -2.0010 O.2       1 <0>        -0.4351
     11 C9         -1.9831    1.2570   -2.8873 C.ar      1 <0>        -0.1611
     12 C10        -1.0222    2.0854   -3.4721 C.ar      1 <0>        -0.0708
     13 C11        -1.3756    3.3455   -3.9072 C.ar      1 <0>        -0.0930
     14 C12        -2.6785    3.7900   -3.7653 C.ar      1 <0>        -0.0868
     15 C13        -3.6356    2.9747   -3.1869 C.ar      1 <0>        -0.0926
     16 C14        -3.2977    1.7099   -2.7529 C.ar      1 <0>        -0.0669
     17 C15        -5.0517    3.4677   -3.0367 C.3       1 <0>        -0.1168
     18 C16        -0.3404    4.2406   -4.5383 C.3       1 <0>        -0.1164
     19 N2         -0.3333   -0.9050   -4.8411 N.pl3     1 <0>        -0.8369
     20 O2          2.3432   -1.6948   -4.6654 O.2       1 <0>        -0.5385
     21 C17         2.6606   -0.9654   -0.0332 C.3       1 <0>        -0.1198
     22 H1          1.1384    1.6649    0.2593 H         1 <0>         0.0577
     23 H2         -0.3589    1.8805   -0.6787 H         1 <0>         0.0563
     24 H3         -0.4347    1.7064    1.0911 H         1 <0>         0.0596
     25 H4          0.4852   -0.6189    0.8542 H         1 <0>         0.0807
     26 H5         -1.0881   -0.4106    0.0482 H         1 <0>         0.0743
     27 H6         -0.0049    1.7400   -3.5828 H         1 <0>         0.1280
     28 H7         -2.9495    4.7779   -4.1071 H         1 <0>         0.1276
     29 H8         -4.0467    1.0729   -2.3061 H         1 <0>         0.1336
     30 H9         -5.6249    3.2026   -3.9251 H         1 <0>         0.0734
     31 H10        -5.5061    3.0060   -2.1600 H         1 <0>         0.0697
     32 H11        -5.0485    4.5510   -2.9162 H         1 <0>         0.0693
     33 H12        -0.3832    4.1374   -5.6225 H         1 <0>         0.0728
     34 H13        -0.5398    5.2764   -4.2637 H         1 <0>         0.0700
     35 H14         0.6505    3.9554   -4.1850 H         1 <0>         0.0676
     36 H15         0.0650   -1.2501   -5.6555 H         1 <0>         0.4121
     37 H16        -1.2367   -0.5522   -4.8548 H         1 <0>         0.4049
     38 H17         2.5557   -1.9375    0.4485 H         1 <0>         0.0832
     39 H18         3.7114   -0.7826   -0.2578 H         1 <0>         0.0730
     40 H19         2.2912   -0.1872    0.6347 H         1 <0>         0.0918
     41 H20         3.3913   -1.6225   -2.4537 H         1 <0>         0.4192
@<TRIPOS>BOND
     1    1    2 1
     2    1   22 1
     3    1   23 1
     4    1   24 1
     5    2    3 1
     6    2   25 1
     7    2   26 1
     8    3    8 1
     9    3    4 2
    10    4    5 1
    11    4   21 1
    12    5    6 am
    13    5   41 1
    14    6    7 1
    15    6   20 2
    16    7    8 2
    17    7   19 1
    18    8    9 1
    19    9   10 2
    20    9   11 1
    21   11   16 ar
    22   11   12 ar
    23   12   13 ar
    24   12   27 1
    25   13   14 ar
    26   13   18 1
    27   14   15 ar
    28   14   28 1
    29   15   16 ar
    30   15   17 1
    31   16   29 1
    32   17   30 1
    33   17   31 1
    34   17   32 1
    35   18   33 1
    36   18   34 1
    37   18   35 1
    38   19   36 1
    39   19   37 1
    40   21   38 1
    41   21   39 1
    42   21   40 1
@<TRIPOS>MOLECULE
CHEMBL293736
   32    34     0     0     0
SMALL
USER_CHARGES

@<TRIPOS>ATOM
      1 C1         -0.0167    1.3794    0.0096 C.ar      1 <0>        -0.0558
      2 C2          1.1693    2.0873    0.0021 C.ar      1 <0>        -0.1419
      3 C3          2.3815    1.4106   -0.0086 C.ar      1 <0>         0.1951
      4 C4          2.3970    0.0223   -0.0338 C.ar      1 <0>        -0.1364
      5 C5          1.2088   -0.6814   -0.0207 C.ar      1 <0>        -0.0402
      6 C6          0.0021   -0.0041    0.0020 C.ar      1 <0>        -0.0623
      7 Cl1        -1.4899   -0.8914    0.0210 Cl        1 <0>        -0.0554
      8 C7          3.7084   -0.7176   -0.0960 C.3       1 <0>         0.0880
      9 C8          4.7768    0.0632    0.6698 C.3       1 <0>        -0.1366
     10 C9          4.7495    1.5093    0.2502 C.2       1 <0>         0.5255
     11 O1          5.7897    2.1241    0.1456 O.2       1 <0>        -0.4983
     12 N1          3.5833    2.1250   -0.0095 N.am      1 <0>        -0.6581
     13 C10         3.5482   -2.0502    0.5084 C.1       1 <0>        -0.2107
     14 C11         3.4204   -3.1131    0.9903 C.1       1 <0>        -0.0619
     15 C12         3.2601   -4.4457    1.5947 C.3       1 <0>        -0.0661
     16 C13         3.9789   -4.7120    2.9188 C.3       1 <0>        -0.1591
     17 C14         4.4877   -5.3582    1.6287 C.3       1 <0>        -0.1595
     18 C15         4.1382   -0.8701   -1.5564 C.3       1 <0>         0.4607
     19 F1          4.2886    0.3957   -2.1329 F         1 <0>        -0.1705
     20 F2          5.3556   -1.5569   -1.6150 F         1 <0>        -0.1692
     21 F3          3.1632   -1.5886   -2.2568 F         1 <0>        -0.1679
     22 H1         -0.9594    1.9062    0.0260 H         1 <0>         0.1476
     23 H2          1.1537    3.1672    0.0042 H         1 <0>         0.1479
     24 H3          1.2213   -1.7613   -0.0286 H         1 <0>         0.1445
     25 H4          4.5803   -0.0075    1.7397 H         1 <0>         0.1342
     26 H5          5.7585   -0.3584    0.4538 H         1 <0>         0.1299
     27 H6          3.5754    3.0761   -0.1997 H         1 <0>         0.4200
     28 H7          2.2878   -4.9154    1.4461 H         1 <0>         0.1361
     29 H8          4.5705   -3.9004    3.3424 H         1 <0>         0.1008
     30 H9          3.4795   -5.3569    3.6418 H         1 <0>         0.1094
     31 H10         4.3230   -6.4283    1.5029 H         1 <0>         0.1095
     32 H11         5.4140   -4.9718    1.2035 H         1 <0>         0.1008
@<TRIPOS>BOND
     1    1    6 ar
     2    1    2 ar
     3    1   22 1
     4    2    3 ar
     5    2   23 1
     6    3   12 1
     7    3    4 ar
     8    4    5 ar
     9    4    8 1
    10    5    6 ar
    11    5   24 1
    12    6    7 1
    13    8    9 1
    14    8   13 1
    15    8   18 1
    16    9   10 1
    17    9   25 1
    18    9   26 1
    19   10   11 2
    20   10   12 am
    21   12   27 1
    22   13   14 3
    23   14   15 1
    24   15   17 1
    25   15   16 1
    26   15   28 1
    27   16   17 1
    28   16   29 1
    29   16   30 1
    30   17   31 1
    31   17   32 1
    32   18   19 1
    33   18   20 1
    34   18   21 1
@<TRIPOS>MOLECULE
CHEMBL57113
   45    48     0     0     0
SMALL
USER_CHARGES

@<TRIPOS>ATOM
      1 C1          0.0648    1.4992   -0.2712 C.ar      1 <0>        -0.0610
      2 C2          1.2713    2.1680   -0.2004 C.ar      1 <0>        -0.1367
      3 C3          2.4586    1.4522   -0.1297 C.ar      1 <0>         0.1919
      4 C4          2.4278    0.0641   -0.1075 C.ar      1 <0>        -0.1125
      5 C5          1.2196   -0.6005   -0.1831 C.ar      1 <0>        -0.0699
      6 C6          0.0383    0.1158   -0.2664 C.ar      1 <0>        -0.0514
      7 Cl1        -1.4787   -0.7225   -0.3649 Cl        1 <0>        -0.0537
      8 C7          3.7096   -0.7182    0.0195 C.3       1 <0>         0.0860
      9 C8          4.8405    0.0282   -0.6887 C.3       1 <0>         0.0846
     10 H1          5.7956   -0.4254   -0.4240 H         1 <0>         0.1240
     11 C9          4.8387    1.4739   -0.2671 C.2       1 <0>         0.5179
     12 O1          5.8917    2.0545   -0.1079 O.2       1 <0>        -0.4966
     13 N1          3.6814    2.1270   -0.0656 N.am      1 <0>        -0.6485
     14 O2          4.6512   -0.0535   -2.1028 O.3       1 <0>        -0.3423
     15 C10         5.8664   -0.0277   -2.8542 C.3       1 <0>         0.0931
     16 C11         5.5497   -0.1189   -4.3247 C.ar      1 <0>        -0.0482
     17 C12         5.4574   -1.3500   -4.9558 C.ar      1 <0>        -0.1468
     18 C13         5.1652   -1.3945   -6.3059 C.ar      1 <0>         0.0993
     19 N2          4.9758   -0.2843   -6.9920 N.ar      1 <0>        -0.4770
     20 C14         5.0559    0.9035   -6.4249 C.ar      1 <0>         0.0987
     21 C15         5.3381    1.0261   -5.0775 C.ar      1 <0>        -0.1492
     22 C16         4.0457   -0.8798    1.4435 C.1       1 <0>        -0.2255
     23 C17         4.3138   -1.0087    2.5791 C.1       1 <0>        -0.0461
     24 C18         4.6500   -1.1703    4.0031 C.3       1 <0>        -0.0686
     25 C19         5.8782   -0.4242    4.5281 C.3       1 <0>        -0.1584
     26 C20         5.9261   -1.9424    4.3445 C.3       1 <0>        -0.1570
     27 C21         3.5304   -2.0965   -0.6201 C.3       1 <0>         0.4741
     28 F1          3.0005   -1.9484   -1.9063 F         1 <0>        -0.1520
     29 F2          4.7706   -2.7393   -0.6978 F         1 <0>        -0.1715
     30 F3          2.6563   -2.8621    0.1591 F         1 <0>        -0.1680
     31 H2         -0.8587    2.0564   -0.3259 H         1 <0>         0.1479
     32 H3          1.2909    3.2478   -0.2003 H         1 <0>         0.1473
     33 H4          1.1965   -1.6802   -0.1775 H         1 <0>         0.1516
     34 H5          3.6947    3.0777    0.1266 H         1 <0>         0.4196
     35 H6          6.3978    0.9027   -2.6540 H         1 <0>         0.0762
     36 H7          6.4911   -0.8725   -2.5640 H         1 <0>         0.0766
     37 H8          5.6122   -2.2627   -4.3995 H         1 <0>         0.1377
     38 H9          5.0915   -2.3494   -6.8049 H         1 <0>         0.1599
     39 H10         4.8948    1.7907   -7.0194 H         1 <0>         0.1592
     40 H11         5.3974    2.0015   -4.6178 H         1 <0>         0.1355
     41 H12         3.8004   -1.2790    4.6773 H         1 <0>         0.1375
     42 H13         6.4373    0.1864    3.8191 H         1 <0>         0.1002
     43 H14         5.8368   -0.0416    5.5480 H         1 <0>         0.1104
     44 H15         5.9161   -2.5586    5.2436 H         1 <0>         0.1109
     45 H16         6.5166   -2.3306    3.5147 H         1 <0>         0.1012
@<TRIPOS>BOND
     1    1    6 ar
     2    1    2 ar
     3    1   31 1
     4    2    3 ar
     5    2   32 1
     6    3   13 1
     7    3    4 ar
     8    4    5 ar
     9    4    8 1
    10    5    6 ar
    11    5   33 1
    12    6    7 1
    13    8    9 1
    14    8   22 1
    15    8   27 1
    16    9   10 1
    17    9   11 1
    18    9   14 1
    19   11   12 2
    20   11   13 am
    21   13   34 1
    22   14   15 1
    23   15   16 1
    24   15   35 1
    25   15   36 1
    26   16   21 ar
    27   16   17 ar
    28   17   18 ar
    29   17   37 1
    30   18   19 ar
    31   18   38 1
    32   19   20 ar
    33   20   21 ar
    34   20   39 1
    35   21   40 1
    36   22   23 3
    37   23   24 1
    38   24   26 1
    39   24   25 1
    40   24   41 1
    41   25   26 1
    42   25   42 1
    43   25   43 1
    44   26   44 1
    45   26   45 1
    46   27   28 1
    47   27   29 1
    48   27   30 1
@<TRIPOS>MOLECULE
CHEMBL318720
   46    49     0     0     0
SMALL
USER_CHARGES

@<TRIPOS>ATOM
      1 C1         -0.0187    1.5258    0.0104 C.3       1 <0>        -0.1710
      2 C2          0.0021   -0.0041    0.0020 C.3       1 <0>         0.1378
      3 N1          0.6878   -0.4765   -1.2033 N.pl3     1 <0>        -0.5794
      4 C3         -0.0293   -0.7094   -2.3768 C.ar      1 <0>         0.3616
      5 C4          0.2596    0.0020   -3.5394 C.ar      1 <0>         0.0914
      6 C5         -0.4387   -0.3009   -4.7037 C.ar      1 <0>        -0.0863
      7 C6         -1.4211   -1.2801   -4.6545 C.ar      1 <0>        -0.1551
      8 C7         -1.6754   -1.9208   -3.4593 C.ar      1 <0>         0.1105
      9 N2         -0.9869   -1.6259   -2.3730 N.ar      1 <0>        -0.4742
     10 N3          1.1872    1.0403   -3.5547 N.am      1 <0>        -0.5378
     11 C8          2.3530    1.0742   -2.9261 C.2       1 <0>         0.5755
     12 O1          3.0368    2.0681   -3.0770 O.2       1 <0>        -0.5230
     13 C9          2.8893    0.0168   -2.0637 C.ar      1 <0>        -0.1947
     14 C10         2.0554   -0.6913   -1.1915 C.ar      1 <0>         0.4110
     15 N4          2.5742   -1.5847   -0.3616 N.ar      1 <0>        -0.4950
     16 C11         3.8622   -1.8675   -0.3601 C.ar      1 <0>         0.1585
     17 C12         4.7345   -1.2396   -1.2302 C.ar      1 <0>        -0.1462
     18 C13         4.2543   -0.2889   -2.0944 C.ar      1 <0>         0.0021
     19 C14         6.1976   -1.6009   -1.2322 C.3       1 <0>        -0.0347
     20 C15         6.4361   -2.7252   -2.2069 C.ar      1 <0>        -0.0829
     21 C16         6.3443   -4.0380   -1.7837 C.ar      1 <0>        -0.1135
     22 C17         6.5631   -5.0693   -2.6778 C.ar      1 <0>        -0.1172
     23 C18         6.8733   -4.7879   -3.9952 C.ar      1 <0>        -0.1214
     24 C19         6.9642   -3.4751   -4.4186 C.ar      1 <0>        -0.1177
     25 C20         6.7412   -2.4438   -3.5254 C.ar      1 <0>        -0.1149
     26 C21         0.8374    2.2197   -4.3503 C.3       1 <0>         0.0651
     27 H1          1.0039    1.9031    0.0027 H         1 <0>         0.0539
     28 H2         -0.5459    1.8868   -0.8726 H         1 <0>         0.0536
     29 H3         -0.5289    1.8773    0.9072 H         1 <0>         0.0723
     30 H4          0.5293   -0.3651    0.8851 H         1 <0>         0.0834
     31 H5         -1.0205   -0.3814    0.0098 H         1 <0>         0.0837
     32 H6         -0.2211    0.2156   -5.6269 H         1 <0>         0.1470
     33 H7         -1.9804   -1.5375   -5.5418 H         1 <0>         0.1475
     34 H8         -2.4485   -2.6734   -3.4122 H         1 <0>         0.1667
     35 H9          4.2428   -2.6025    0.3336 H         1 <0>         0.1652
     36 H10         4.9193    0.2173   -2.7784 H         1 <0>         0.1456
     37 H11         6.7859   -0.7324   -1.5282 H         1 <0>         0.0892
     38 H12         6.4950   -1.9175   -0.2324 H         1 <0>         0.0916
     39 H13         6.1019   -4.2579   -0.7545 H         1 <0>         0.1229
     40 H14         6.4920   -6.0950   -2.3470 H         1 <0>         0.1230
     41 H15         7.0449   -5.5936   -4.6935 H         1 <0>         0.1217
     42 H16         7.2069   -3.2552   -5.4477 H         1 <0>         0.1222
     43 H17         6.8086   -1.4182   -3.8571 H         1 <0>         0.1209
     44 H18         0.2955    2.9309   -3.7269 H         1 <0>         0.0677
     45 H19         1.7474    2.6866   -4.7273 H         1 <0>         0.0936
     46 H20         0.2091    1.9190   -5.1888 H         1 <0>         0.0799
@<TRIPOS>BOND
     1    1    2 1
     2    1   27 1
     3    1   28 1
     4    1   29 1
     5    2    3 1
     6    2   30 1
     7    2   31 1
     8    3   14 1
     9    3    4 1
    10    4    9 ar
    11    4    5 ar
    12    5    6 ar
    13    5   10 1
    14    6    7 ar
    15    6   32 1
    16    7    8 ar
    17    7   33 1
    18    8    9 ar
    19    8   34 1
    20   10   11 am
    21   10   26 1
    22   11   12 2
    23   11   13 1
    24   13   18 ar
    25   13   14 ar
    26   14   15 ar
    27   15   16 ar
    28   16   17 ar
    29   16   35 1
    30   17   18 ar
    31   17   19 1
    32   18   36 1
    33   19   20 1
    34   19   37 1
    35   19   38 1
    36   20   25 ar
    37   20   21 ar
    38   21   22 ar
    39   21   39 1
    40   22   23 ar
    41   22   40 1
    42   23   24 ar
    43   23   41 1
    44   24   25 ar
    45   24   42 1
    46   25   43 1
    47   26   44 1
    48   26   45 1
    49   26   46 1
@<TRIPOS>MOLECULE
CHEMBL69005
   34    37     0     0     0
SMALL
USER_CHARGES

@<TRIPOS>ATOM
      1 C1         -0.0167    1.3787    0.0096 C.ar      1 <0>        -0.1704
      2 C2          1.1812    2.0724    0.0019 C.ar      1 <0>        -0.0377
      3 C3          2.3720    1.3391   -0.0134 C.ar      1 <0>        -0.1149
      4 C4          2.3056   -0.0540   -0.0202 C.ar      1 <0>         0.1337
      5 N1          1.1413   -0.6693   -0.0129 N.ar      1 <0>        -0.4783
      6 C5          0.0021   -0.0041    0.0020 C.ar      1 <0>         0.1174
      7 C6          3.6813    2.0303   -0.0227 C.2       1 <0>         0.1586
      8 C7          4.8238    1.3229   -0.0430 C.2       1 <0>        -0.2419
      9 C8          6.1223    2.0973   -0.0482 C.3       1 <0>         0.2408
     10 C9          5.9098    3.3130   -0.9128 C.ar      1 <0>        -0.2202
     11 C10         6.8700    3.7499   -1.8026 C.ar      1 <0>         0.2313
     12 C11         6.6461    4.9093   -2.5333 C.ar      1 <0>        -0.1568
     13 C12         5.4451    5.5844   -2.4047 C.ar      1 <0>        -0.0262
     14 C13         4.4553    5.1061   -1.5609 C.ar      1 <0>        -0.0736
     15 C14         4.6819    3.9599   -0.8231 C.ar      1 <0>         0.1745
     16 O1          3.7431    3.3973   -0.0164 O.3       1 <0>        -0.2250
     17 Cl1         2.9394    5.9422   -1.4316 Cl        1 <0>        -0.0351
     18 N2          8.0220    2.9800   -1.9972 N.am      1 <0>        -0.6559
     19 C15         8.1245    1.7667   -1.4260 C.2       1 <0>         0.7221
     20 O2          9.0709    1.0629   -1.7215 O.2       1 <0>        -0.5476
     21 N3          7.2290    1.2998   -0.5452 N.am      1 <0>        -0.7039
     22 C16         6.4363    2.5637    1.3748 C.3       1 <0>         0.4410
     23 F1          6.5568    1.4511    2.2143 F         1 <0>        -0.1701
     24 F2          7.6374    3.2811    1.3760 F         1 <0>        -0.1722
     25 F3          5.4019    3.3854    1.8351 F         1 <0>        -0.1626
     26 H1         -0.9559    1.9116    0.0259 H         1 <0>         0.1455
     27 H2          1.1958    3.1523    0.0072 H         1 <0>         0.1465
     28 H3          3.2171   -0.6332   -0.0321 H         1 <0>         0.1624
     29 H4         -0.9308   -0.5481    0.0080 H         1 <0>         0.1644
     30 H5          4.8147    0.2430   -0.0549 H         1 <0>         0.1697
     31 H6          7.4082    5.2837   -3.2006 H         1 <0>         0.1557
     32 H7          5.2779    6.4917   -2.9663 H         1 <0>         0.1595
     33 H8          8.7468    3.3215   -2.5439 H         1 <0>         0.4368
     34 H9          7.3245    0.3890   -0.2254 H         1 <0>         0.4325
@<TRIPOS>BOND
     1    1    6 ar
     2    1    2 ar
     3    1   26 1
     4    2    3 ar
     5    2   27 1
     6    3    4 ar
     7    3    7 1
     8    4    5 ar
     9    4   28 1
    10    5    6 ar
    11    6   29 1
    12    7   16 1
    13    7    8 2
    14    8    9 1
    15    8   30 1
    16    9   21 1
    17    9   10 1
    18    9   22 1
    19   10   15 ar
    20   10   11 ar
    21   11   12 ar
    22   11   18 1
    23   12   13 ar
    24   12   31 1
    25   13   14 ar
    26   13   32 1
    27   14   15 ar
    28   14   17 1
    29   15   16 1
    30   18   19 am
    31   18   33 1
    32   19   20 2
    33   19   21 am
    34   21   34 1
    35   22   23 1
    36   22   24 1
    37   22   25 1
@<TRIPOS>MOLECULE
CHEMBL69005__1
   34    37     0     0     0
SMALL
USER_CHARGES

@<TRIPOS>ATOM
      1 C1         -0.0167    1.3787    0.0096 C.ar      1 <0>        -0.1705
      2 C2          1.1812    2.0724    0.0019 C.ar      1 <0>        -0.0378
      3 C3          2.3720    1.3391   -0.0134 C.ar      1 <0>        -0.1152
      4 C4          2.3056   -0.0540   -0.0202 C.ar      1 <0>         0.1335
      5 N1          1.1413   -0.6693   -0.0129 N.ar      1 <0>        -0.4784
      6 C5          0.0021   -0.0041    0.0020 C.ar      1 <0>         0.1173
      7 C6          3.6813    2.0303   -0.0227 C.2       1 <0>         0.1577
      8 C7          4.8238    1.3229   -0.0430 C.2       1 <0>        -0.2413
      9 C8          6.1222    2.0973   -0.0550 C.3       1 <0>         0.2406
     10 C9          5.9310    3.2970    0.8367 C.ar      1 <0>        -0.2179
     11 C10         6.9126    3.7177    1.7108 C.ar      1 <0>         0.2307
     12 C11         6.7066    4.8634    2.4678 C.ar      1 <0>        -0.1559
     13 C12         5.5030    5.5405    2.3808 C.ar      1 <0>        -0.0268
     14 C13         4.4930    5.0776    1.5525 C.ar      1 <0>        -0.0720
     15 C14         4.7014    3.9451    0.7885 C.ar      1 <0>         0.1718
     16 O1          3.7431    3.3973   -0.0164 O.3       1 <0>        -0.2250
     17 Cl1         2.9746    5.9155    1.4753 Cl        1 <0>        -0.0349
     18 N2          8.0687    2.9446    1.8634 N.am      1 <0>        -0.6558
     19 C15         8.1571    1.7420    1.2676 C.2       1 <0>         0.7221
     20 O2          9.1098    1.0328    1.5279 O.2       1 <0>        -0.5476
     21 N3          7.2404    1.2911    0.4004 N.am      1 <0>        -0.7039
     22 C16         6.4018    2.5898   -1.4763 C.3       1 <0>         0.4411
     23 F1          5.3567    3.4196   -1.8964 F         1 <0>        -0.1624
     24 F2          7.6027    3.3074   -1.4935 F         1 <0>        -0.1723
     25 F3          6.5018    1.4928   -2.3388 F         1 <0>        -0.1702
     26 H1         -0.9559    1.9116    0.0259 H         1 <0>         0.1454
     27 H2          1.1958    3.1523    0.0072 H         1 <0>         0.1464
     28 H3          3.2171   -0.6332   -0.0321 H         1 <0>         0.1624
     29 H4         -0.9308   -0.5481    0.0080 H         1 <0>         0.1644
     30 H5          4.8147    0.2430   -0.0500 H         1 <0>         0.1696
     31 H6          7.4847    5.2257    3.1232 H         1 <0>         0.1559
     32 H7          5.3497    6.4373    2.9627 H         1 <0>         0.1596
     33 H8          8.8066    3.2762    2.3985 H         1 <0>         0.4368
     34 H9          7.3280    0.3863    0.0617 H         1 <0>         0.4325
@<TRIPOS>BOND
     1    1    6 ar
     2    1    2 ar
     3    1   26 1
     4    2    3 ar
     5    2   27 1
     6    3    4 ar
     7    3    7 1
     8    4    5 ar
     9    4   28 1
    10    5    6 ar
    11    6   29 1
    12    7   16 1
    13    7    8 2
    14    8    9 1
    15    8   30 1
    16    9   21 1
    17    9   10 1
    18    9   22 1
    19   10   15 ar
    20   10   11 ar
    21   11   12 ar
    22   11   18 1
    23   12   13 ar
    24   12   31 1
    25   13   14 ar
    26   13   32 1
    27   14   15 ar
    28   14   17 1
    29   15   16 1
    30   18   19 am
    31   18   33 1
    32   19   20 2
    33   19   21 am
    34   21   34 1
    35   22   23 1
    36   22   24 1
    37   22   25 1
@<TRIPOS>MOLECULE
CHEMBL303446
   32    35     0     0     0
SMALL
USER_CHARGES

@<TRIPOS>ATOM
      1 C1         -0.0167    1.3839    0.0097 C.ar      1 <0>        -0.1581
      2 C2          1.1735    2.0899    0.0021 C.ar      1 <0>        -0.0274
      3 C3          2.3890    1.4239   -0.0031 C.ar      1 <0>        -0.0738
      4 C4          2.4098    0.0428   -0.0291 C.ar      1 <0>         0.1741
      5 C5          1.2124   -0.6635   -0.0635 C.ar      1 <0>        -0.2196
      6 C6          0.0021   -0.0041    0.0020 C.ar      1 <0>         0.2300
      7 N1         -1.1750   -0.7521    0.1114 N.am      1 <0>        -0.6561
      8 C7         -1.1124   -2.0832    0.2944 C.2       1 <0>         0.7214
      9 O1         -2.1420   -2.6873    0.5256 O.2       1 <0>        -0.5495
     10 N2          0.0357   -2.7731    0.2326 N.am      1 <0>        -0.7040
     11 C8          1.2956   -2.1655   -0.1533 C.3       1 <0>         0.2401
     12 C9          2.4411   -2.5996    0.7311 C.2       1 <0>        -0.2531
     13 C10         3.5245   -1.8282    0.7539 C.2       1 <0>         0.1420
     14 O2          3.5566   -0.6931   -0.0063 O.3       1 <0>        -0.2275
     15 C11         4.7064   -2.2029    1.6105 C.3       1 <0>        -0.1289
     16 C12         5.8328   -1.1767    1.7480 C.3       1 <0>        -0.1603
     17 C13         6.0441   -2.4363    0.9055 C.3       1 <0>        -0.1547
     18 C14         1.6181   -2.5608   -1.5957 C.3       1 <0>         0.4397
     19 F1          2.8423   -1.9971   -1.9711 F         1 <0>        -0.1633
     20 F2          1.6978   -3.9543   -1.6906 F         1 <0>        -0.1711
     21 F3          0.6093   -2.0925   -2.4443 F         1 <0>        -0.1743
     22 Cl1         3.8760    2.3195    0.0223 Cl        1 <0>        -0.0353
     23 H1         -0.9587    1.9120    0.0260 H         1 <0>         0.1548
     24 H2          1.1551    3.1698   -0.0002 H         1 <0>         0.1586
     25 H3         -2.0369   -0.3105    0.0556 H         1 <0>         0.4362
     26 H4          0.0236   -3.7171    0.4556 H         1 <0>         0.4319
     27 H5          2.3824   -3.5014    1.3225 H         1 <0>         0.1661
     28 H6          4.4803   -2.8220    2.4787 H         1 <0>         0.1391
     29 H7          5.7190   -0.2306    1.2189 H         1 <0>         0.1067
     30 H8          6.3480   -1.1204    2.7069 H         1 <0>         0.1057
     31 H9          6.6983   -3.2086    1.3102 H         1 <0>         0.1075
     32 H10         6.0693   -2.3188   -0.1778 H         1 <0>         0.1033
@<TRIPOS>BOND
     1    1    6 ar
     2    1    2 ar
     3    1   23 1
     4    2    3 ar
     5    2   24 1
     6    3    4 ar
     7    3   22 1
     8    4   14 1
     9    4    5 ar
    10    5   11 1
    11    5    6 ar
    12    6    7 1
    13    7    8 am
    14    7   25 1
    15    8    9 2
    16    8   10 am
    17   10   11 1
    18   10   26 1
    19   11   12 1
    20   11   18 1
    21   12   13 2
    22   12   27 1
    23   13   14 1
    24   13   15 1
    25   15   17 1
    26   15   16 1
    27   15   28 1
    28   16   17 1
    29   16   29 1
    30   16   30 1
    31   17   31 1
    32   17   32 1
    33   18   19 1
    34   18   20 1
    35   18   21 1
@<TRIPOS>MOLECULE
CHEMBL303446__1
   32    35     0     0     0
SMALL
USER_CHARGES

@<TRIPOS>ATOM
      1 C1         -0.0167    1.3839    0.0097 C.ar      1 <0>        -0.1580
      2 C2          1.1735    2.0899    0.0021 C.ar      1 <0>        -0.0276
      3 C3          2.3888    1.4240   -0.0240 C.ar      1 <0>        -0.0746
      4 C4          2.4100    0.0427   -0.0132 C.ar      1 <0>         0.1725
      5 C5          1.2134   -0.6641    0.0373 C.ar      1 <0>        -0.2190
      6 C6          0.0021   -0.0041    0.0020 C.ar      1 <0>         0.2301
      7 N1         -1.1770   -0.7510   -0.0929 N.am      1 <0>        -0.6561
      8 C7         -1.1180   -2.0802   -0.2905 C.2       1 <0>         0.7214
      9 O1         -2.1519   -2.6821   -0.5077 O.2       1 <0>        -0.5494
     10 N2          0.0312   -2.7704   -0.2588 N.am      1 <0>        -0.7039
     11 C8          1.2982   -2.1669    0.1093 C.3       1 <0>         0.2401
     12 C9          2.4259   -2.5914   -0.8023 C.2       1 <0>        -0.2534
     13 C10         3.5087   -1.8197   -0.8382 C.2       1 <0>         0.1419
     14 O2          3.5560   -0.6927   -0.0667 O.3       1 <0>        -0.2263
     15 C11         4.6733   -2.1850   -1.7221 C.3       1 <0>        -0.1269
     16 C12         5.9603   -1.3724   -1.5667 C.3       1 <0>        -0.1572
     17 C13         5.0806   -1.1829   -2.8041 C.3       1 <0>        -0.1580
     18 C14         1.6493   -2.5776    1.5407 C.3       1 <0>         0.4395
     19 F1          0.6576   -2.1186    2.4142 F         1 <0>        -0.1744
     20 F2          1.7307   -3.9721    1.6191 F         1 <0>        -0.1713
     21 F3          2.8807   -2.0179    1.8978 F         1 <0>        -0.1627
     22 Cl1         3.8750    2.3200   -0.0705 Cl        1 <0>        -0.0351
     23 H1         -0.9587    1.9120    0.0260 H         1 <0>         0.1548
     24 H2          1.1553    3.1697    0.0163 H         1 <0>         0.1585
     25 H3         -2.0376   -0.3101   -0.0159 H         1 <0>         0.4362
     26 H4          0.0146   -3.7120   -0.4910 H         1 <0>         0.4319
     27 H5          2.3556   -3.4872   -1.4014 H         1 <0>         0.1661
     28 H6          4.7722   -3.2452   -1.9552 H         1 <0>         0.1395
     29 H7          5.9647   -0.5736   -0.8252 H         1 <0>         0.1076
     30 H8          6.9063   -1.8980   -1.6974 H         1 <0>         0.1067
     31 H9          5.4479   -1.5838   -3.7488 H         1 <0>         0.1088
     32 H10         4.5063   -0.2594   -2.8766 H         1 <0>         0.0984
@<TRIPOS>BOND
     1    1    6 ar
     2    1    2 ar
     3    1   23 1
     4    2    3 ar
     5    2   24 1
     6    3    4 ar
     7    3   22 1
     8    4   14 1
     9    4    5 ar
    10    5   11 1
    11    5    6 ar
    12    6    7 1
    13    7    8 am
    14    7   25 1
    15    8    9 2
    16    8   10 am
    17   10   11 1
    18   10   26 1
    19   11   12 1
    20   11   18 1
    21   12   13 2
    22   12   27 1
    23   13   14 1
    24   13   15 1
    25   15   17 1
    26   15   16 1
    27   15   28 1
    28   16   17 1
    29   16   29 1
    30   16   30 1
    31   17   31 1
    32   17   32 1
    33   18   19 1
    34   18   20 1
    35   18   21 1
@<TRIPOS>MOLECULE
CHEMBL267747
   38    40     0     0     0
SMALL
USER_CHARGES

@<TRIPOS>ATOM
      1 C1          0.8113   -2.0319   -0.1410 C.3       1 <0>        -0.1455
      2 C2          0.1518   -0.6587    0.0018 C.3       1 <0>        -0.0474
      3 C3         -1.3438   -0.8055   -0.1112 C.2       1 <0>        -0.2030
      4 C4         -2.2381   -0.9438    0.9507 C.2       1 <0>         0.0850
      5 N1         -3.4504   -1.0453    0.4664 N.2       1 <0>        -0.2814
      6 N2         -3.3787   -0.9755   -0.9308 N.pl3     1 <0>        -0.3207
      7 C5         -2.0653   -0.8209   -1.2717 C.2       1 <0>         0.1243
      8 C6         -1.5238   -0.6966   -2.6427 C.ar      1 <0>        -0.0350
      9 C7         -0.7264    0.3961   -2.9845 C.ar      1 <0>        -0.0929
     10 C8         -0.2241    0.5060   -4.2649 C.ar      1 <0>        -0.1171
     11 C9         -0.5099   -0.4641   -5.2089 C.ar      1 <0>        -0.1074
     12 C10        -1.3003   -1.5498   -4.8763 C.ar      1 <0>        -0.1158
     13 C11        -1.8036   -1.6745   -3.5977 C.ar      1 <0>        -0.0934
     14 C12        -4.4601   -1.0463   -1.8184 C.ar      1 <0>         0.1538
     15 C13        -4.4467   -0.3042   -2.9920 C.ar      1 <0>        -0.1237
     16 C14        -5.5142   -0.3765   -3.8654 C.ar      1 <0>        -0.0981
     17 C15        -6.5958   -1.1866   -3.5719 C.ar      1 <0>        -0.1207
     18 C16        -6.6124   -1.9265   -2.4038 C.ar      1 <0>        -0.1012
     19 C17        -5.5452   -1.8632   -1.5294 C.ar      1 <0>        -0.1125
     20 C18        -1.8701   -0.9722    2.4118 C.3       1 <0>        -0.0754
     21 H1          1.8950   -1.9157   -0.1467 H         1 <0>         0.0572
     22 H2          0.5181   -2.6646    0.6968 H         1 <0>         0.0540
     23 H3          0.4905   -2.4937   -1.0748 H         1 <0>         0.0518
     24 H4          0.4028   -0.2344    0.9739 H         1 <0>         0.0736
     25 H5          0.5127    0.0014   -0.7869 H         1 <0>         0.0696
     26 H6         -0.5032    1.1545   -2.2487 H         1 <0>         0.1277
     27 H7          0.3933    1.3514   -4.5308 H         1 <0>         0.1290
     28 H8         -0.1146   -0.3733   -6.2098 H         1 <0>         0.1264
     29 H9         -1.5201   -2.3036   -5.6179 H         1 <0>         0.1271
     30 H10        -2.4169   -2.5247   -3.3381 H         1 <0>         0.1192
     31 H11        -3.6025    0.3292   -3.2215 H         1 <0>         0.1292
     32 H12        -5.5043    0.2004   -4.7783 H         1 <0>         0.1321
     33 H13        -7.4295   -1.2412   -4.2562 H         1 <0>         0.1298
     34 H14        -7.4589   -2.5577   -2.1770 H         1 <0>         0.1326
     35 H15        -5.5565   -2.4451   -0.6196 H         1 <0>         0.1324
     36 H16        -1.8848    0.0423    2.8100 H         1 <0>         0.0801
     37 H17        -2.5880   -1.5863    2.9554 H         1 <0>         0.0753
     38 H18        -0.8713   -1.3932    2.5268 H         1 <0>         0.0808
@<TRIPOS>BOND
     1    1    2 1
     2    1   21 1
     3    1   22 1
     4    1   23 1
     5    2    3 1
     6    2   24 1
     7    2   25 1
     8    3    7 2
     9    3    4 1
    10    4    5 2
    11    4   20 1
    12    5    6 1
    13    6    7 1
    14    6   14 1
    15    7    8 1
    16    8   13 ar
    17    8    9 ar
    18    9   10 ar
    19    9   26 1
    20   10   11 ar
    21   10   27 1
    22   11   12 ar
    23   11   28 1
    24   12   13 ar
    25   12   29 1
    26   13   30 1
    27   14   19 ar
    28   14   15 ar
    29   15   16 ar
    30   15   31 1
    31   16   17 ar
    32   16   32 1
    33   17   18 ar
    34   17   33 1
    35   18   19 ar
    36   18   34 1
    37   19   35 1
    38   20   36 1
    39   20   37 1
    40   20   38 1
@<TRIPOS>MOLECULE
CHEMBL95426
   39    41     0     0     0
SMALL
USER_CHARGES

@<TRIPOS>ATOM
      1 C1         -0.0187    1.5258    0.0104 C.3       1 <0>        -0.1511
      2 C2          0.0021   -0.0041    0.0020 C.3       1 <0>        -0.0697
      3 C3          0.7309   -0.5033    1.2229 C.2       1 <0>        -0.1931
      4 C4          2.1285   -0.6129    1.2097 C.2       1 <0>         0.0014
      5 C5          2.7724   -1.0661    2.3234 C.2       1 <0>        -0.2150
      6 C6          2.0209   -1.4130    3.4592 C.2       1 <0>         0.5215
      7 N1          0.6795   -1.2966    3.4409 N.am      1 <0>        -0.6037
      8 C7          0.0372   -0.8409    2.3350 C.2       1 <0>         0.1616
      9 C8         -1.4645   -0.7150    2.3437 C.3       1 <0>        -0.1319
     10 O1          2.5843   -1.8203    4.4624 O.2       1 <0>        -0.5469
     11 C9          4.2740   -1.1939    2.3358 C.3       1 <0>        -0.0475
     12 C10         4.8883    0.0690    2.9429 C.3       1 <0>        -0.0294
     13 C11         6.3899   -0.0588    2.9553 C.2       1 <0>         0.1093
     14 N2          7.2290    0.3062    2.0304 N.2       1 <0>        -0.5142
     15 C12         8.5609    0.1375    2.1612 C.ar      1 <0>         0.0814
     16 C13         9.6066    0.4677    1.2739 C.ar      1 <0>        -0.0624
     17 C14        10.9017    0.2082    1.6032 C.ar      1 <0>        -0.1086
     18 C15        11.2400   -0.3851    2.8116 C.ar      1 <0>        -0.0992
     19 C16        10.2428   -0.7228    3.7074 C.ar      1 <0>        -0.0628
     20 C17         8.9327   -0.4649    3.3844 C.ar      1 <0>        -0.1719
     21 S1          7.3607   -0.6994    4.1718 S.3       1 <0>         0.0921
     22 H1          1.0039    1.9031    0.0027 H         1 <0>         0.0569
     23 H2         -0.5459    1.8868   -0.8726 H         1 <0>         0.0597
     24 H3         -0.5289    1.8773    0.9072 H         1 <0>         0.0544
     25 H4         -1.0205   -0.3814    0.0098 H         1 <0>         0.0748
     26 H5          0.5123   -0.3556   -0.8948 H         1 <0>         0.0754
     27 H6          2.6891   -0.3418    0.3272 H         1 <0>         0.1368
     28 H7         -1.9094   -1.6493    2.0013 H         1 <0>         0.0911
     29 H8         -1.8052   -0.5001    3.3566 H         1 <0>         0.0781
     30 H9         -1.7650    0.0954    1.6797 H         1 <0>         0.0969
     31 H10         0.1665   -1.5380    4.2280 H         1 <0>         0.4147
     32 H11         4.5600   -2.0601    2.9325 H         1 <0>         0.0840
     33 H12         4.6363   -1.3199    1.3156 H         1 <0>         0.0811
     34 H13         4.6023    0.9352    2.3462 H         1 <0>         0.0992
     35 H14         4.5260    0.1950    3.9632 H         1 <0>         0.0968
     36 H15         9.3778    0.9301    0.3252 H         1 <0>         0.1325
     37 H16        11.6849    0.4699    0.9072 H         1 <0>         0.1346
     38 H17        12.2748   -0.5818    3.0502 H         1 <0>         0.1388
     39 H18        10.4912   -1.1846    4.6515 H         1 <0>         0.1344
@<TRIPOS>BOND
     1    1    2 1
     2    1   22 1
     3    1   23 1
     4    1   24 1
     5    2   25 1
     6    2   26 1
     7    2    3 1
     8    3    8 2
     9    3    4 1
    10    4   27 1
    11    4    5 2
    12    5    6 1
    13    5   11 1
    14    6   10 2
    15    6    7 am
    16    7   31 1
    17    7    8 1
    18    8    9 1
    19    9   28 1
    20    9   29 1
    21    9   30 1
    22   11   12 1
    23   11   32 1
    24   11   33 1
    25   12   13 1
    26   12   34 1
    27   12   35 1
    28   13   21 1
    29   13   14 2
    30   14   15 1
    31   15   20 ar
    32   15   16 ar
    33   16   17 ar
    34   16   36 1
    35   17   18 ar
    36   17   37 1
    37   18   19 ar
    38   18   38 1
    39   19   20 ar
    40   19   39 1
    41   20   21 1
@<TRIPOS>MOLECULE
CHEMBL105916
   43    46     0     0     0
SMALL
USER_CHARGES

@<TRIPOS>ATOM
      1 C1         -0.0673    1.3441   -0.0748 C.ar      1 <0>        -0.0864
      2 C2          1.1091    2.0671   -0.0552 C.ar      1 <0>        -0.1059
      3 C3          2.3307    1.4071   -0.0433 C.ar      1 <0>         0.1209
      4 C4          2.3674    0.0139   -0.0511 C.ar      1 <0>         0.1235
      5 C5          1.1768   -0.7061   -0.0708 C.ar      1 <0>         0.0853
      6 C6         -0.0341   -0.0391   -0.0822 C.ar      1 <0>        -0.1182
      7 F1          1.2042   -2.0567   -0.0794 F         1 <0>        -0.1216
      8 N1          3.5867   -0.6662   -0.0399 N.am      1 <0>        -0.5356
      9 C7          4.7493    0.0156   -0.0204 C.2       1 <0>         0.5872
     10 O1          5.8099   -0.5822   -0.0106 O.2       1 <0>        -0.4986
     11 C8          4.7289    1.4797   -0.0115 C.2       1 <0>        -0.0717
     12 N2          3.5199    2.1439   -0.0240 N.pl3     1 <0>        -0.3760
     13 C9          3.7641    3.4780   -0.0130 C.2       1 <0>         0.0348
     14 C10         5.1042    3.6798    0.0054 C.2       1 <0>        -0.1887
     15 C11         5.7277    2.4283    0.0070 C.2       1 <0>        -0.0807
     16 C12         3.6026   -2.1311   -0.0488 C.3       1 <0>         0.0690
     17 C13         3.4529   -2.6340   -1.4860 C.3       1 <0>         0.1147
     18 N3          3.4688   -4.0989   -1.4949 N.pl3     1 <0>        -0.6757
     19 C14         3.3505   -4.7670   -2.6594 C.2       1 <0>         0.5255
     20 N4          3.3652   -6.1147   -2.6676 N.pl3     1 <0>        -0.6187
     21 C15         3.3535   -6.8043   -3.8787 C.ar      1 <0>         0.3553
     22 C16         3.2488   -8.1909   -3.8806 C.ar      1 <0>        -0.1913
     23 C17         3.2379   -8.8634   -5.0895 C.ar      1 <0>        -0.0247
     24 C18         3.3324   -8.1224   -6.2608 C.ar      1 <0>        -0.1677
     25 C19         3.4338   -6.7468   -6.1841 C.ar      1 <0>         0.1563
     26 N5          3.4366   -6.1329   -5.0162 N.ar      1 <0>        -0.4055
     27 Br1         3.3231   -8.9876   -7.9422 Br        1 <0>        -0.0372
     28 S1          3.1817   -3.9038   -4.1282 S.2       1 <0>        -0.4981
     29 H1         -1.0162    1.8599   -0.0798 H         1 <0>         0.1514
     30 H2          1.0790    3.1467   -0.0496 H         1 <0>         0.1477
     31 H3         -0.9572   -0.5996   -0.0975 H         1 <0>         0.1523
     32 H4          3.0126    4.2537   -0.0187 H         1 <0>         0.1785
     33 H5          5.6025    4.6379    0.0173 H         1 <0>         0.1596
     34 H6          6.7912    2.2407    0.0197 H         1 <0>         0.1576
     35 H7          4.5466   -2.4867    0.3641 H         1 <0>         0.1068
     36 H8          2.7771   -2.5071    0.5556 H         1 <0>         0.1207
     37 H9          2.5089   -2.2784   -1.8989 H         1 <0>         0.0936
     38 H10         4.2784   -2.2580   -2.0903 H         1 <0>         0.0934
     39 H11         3.3839   -6.6046   -1.8306 H         1 <0>         0.4111
     40 H12         3.1774   -8.7356   -2.9507 H         1 <0>         0.1419
     41 H13         3.1580   -9.9399   -5.1220 H         1 <0>         0.1487
     42 H14         3.5075   -6.1662   -7.0918 H         1 <0>         0.1687
     43 H15         3.5645   -4.5879   -0.6627 H         1 <0>         0.3977
@<TRIPOS>BOND
     1    1    6 ar
     2    1    2 ar
     3    1   29 1
     4    2    3 ar
     5    2   30 1
     6    3   12 1
     7    3    4 ar
     8    4    5 ar
     9    4    8 1
    10    5    6 ar
    11    5    7 1
    12    6   31 1
    13    8    9 am
    14    8   16 1
    15    9   10 2
    16    9   11 1
    17   11   15 2
    18   11   12 1
    19   12   13 1
    20   13   14 2
    21   13   32 1
    22   14   15 1
    23   14   33 1
    24   15   34 1
    25   16   17 1
    26   16   35 1
    27   16   36 1
    28   17   18 1
    29   17   37 1
    30   17   38 1
    31   18   19 1
    32   18   43 1
    33   19   20 1
    34   19   28 2
    35   20   21 1
    36   20   39 1
    37   21   26 ar
    38   21   22 ar
    39   22   23 ar
    40   22   40 1
    41   23   24 ar
    42   23   41 1
    43   24   25 ar
    44   24   27 1
    45   25   26 ar
    46   25   42 1
@<TRIPOS>MOLECULE
CHEMBL59215
   45    48     0     0     0
SMALL
USER_CHARGES

@<TRIPOS>ATOM
      1 C1          0.2238    1.3449   -0.4703 C.ar      1 <0>        -0.1750
      2 C2          1.4191    2.0425   -0.3831 C.ar      1 <0>        -0.0502
      3 C3          2.5999    1.3208   -0.3020 C.ar      1 <0>        -0.1467
      4 C4          2.5470   -0.0604   -0.3107 C.ar      1 <0>         0.1274
      5 N1          1.3919   -0.6906   -0.3953 N.ar      1 <0>        -0.4845
      6 C5          0.2493   -0.0367   -0.4735 C.ar      1 <0>         0.1091
      7 C6          3.9245    2.0331   -0.2061 C.3       1 <0>         0.0994
      8 O1          4.2482    2.2538    1.1682 O.3       1 <0>        -0.3439
      9 C7          5.4923    2.9268    1.3714 C.3       1 <0>         0.0843
     10 H1          6.1746    2.6805    0.5578 H         1 <0>         0.1249
     11 C8          5.2587    4.4142    1.3960 C.2       1 <0>         0.5177
     12 O2          5.4471    5.0682    0.3921 O.2       1 <0>        -0.4965
     13 N2          4.8430    5.0241    2.5194 N.am      1 <0>        -0.6492
     14 C9          4.7352    4.3146    3.7192 C.ar      1 <0>         0.1921
     15 C10         4.0420    4.8649    4.7903 C.ar      1 <0>        -0.1371
     16 C11         3.9228    4.1581    5.9704 C.ar      1 <0>        -0.0615
     17 C12         4.4921    2.9020    6.0870 C.ar      1 <0>        -0.0516
     18 C13         5.1877    2.3541    5.0238 C.ar      1 <0>        -0.0701
     19 C14         5.3157    3.0606    3.8436 C.ar      1 <0>        -0.1121
     20 C15         6.1021    2.4774    2.6995 C.3       1 <0>         0.0856
     21 C16         7.4977    2.9388    2.7788 C.1       1 <0>        -0.2249
     22 C17         8.6107    3.3068    2.8420 C.1       1 <0>        -0.0468
     23 C18        10.0063    3.7682    2.9213 C.3       1 <0>        -0.0691
     24 C19        11.1059    2.7059    2.8646 C.3       1 <0>        -0.1575
     25 C20        10.7960    3.4166    4.1837 C.3       1 <0>        -0.1576
     26 C21         6.0659    0.9503    2.7856 C.3       1 <0>         0.4743
     27 F1          6.6087    0.4044    1.6174 F         1 <0>        -0.1707
     28 F2          6.8144    0.5276    3.8893 F         1 <0>        -0.1690
     29 F3          4.7416    0.5225    2.9287 F         1 <0>        -0.1516
     30 Cl1         4.3337    2.0127    7.5695 Cl        1 <0>        -0.0541
     31 H2         -0.7154    1.8746   -0.5305 H         1 <0>         0.1389
     32 H3          1.4298    3.1225   -0.3788 H         1 <0>         0.1347
     33 H4          3.4625   -0.6300   -0.2479 H         1 <0>         0.1567
     34 H5         -0.6773   -0.5875   -0.5408 H         1 <0>         0.1592
     35 H6          4.6998    1.4222   -0.6684 H         1 <0>         0.0761
     36 H7          3.8603    2.9908   -0.7226 H         1 <0>         0.0739
     37 H8          4.6156    5.9669    2.4974 H         1 <0>         0.4194
     38 H9          3.5970    5.8448    4.6999 H         1 <0>         0.1470
     39 H10         3.3850    4.5861    6.8035 H         1 <0>         0.1475
     40 H11         5.6309    1.3737    5.1166 H         1 <0>         0.1517
     41 H12        10.2108    4.7302    2.4513 H         1 <0>         0.1364
     42 H13        10.7959    1.6653    2.7687 H         1 <0>         0.1016
     43 H14        12.0340    2.9688    2.3573 H         1 <0>         0.1103
     44 H15        11.5203    4.1471    4.5440 H         1 <0>         0.1098
     45 H16        10.2821    2.8436    4.9555 H         1 <0>         0.1016
@<TRIPOS>BOND
     1    1    6 ar
     2    1    2 ar
     3    1   31 1
     4    2    3 ar
     5    2   32 1
     6    3    4 ar
     7    3    7 1
     8    4    5 ar
     9    4   33 1
    10    5    6 ar
    11    6   34 1
    12    7    8 1
    13    7   35 1
    14    7   36 1
    15    8    9 1
    16    9   10 1
    17    9   20 1
    18    9   11 1
    19   11   12 2
    20   11   13 am
    21   13   14 1
    22   13   37 1
    23   14   19 ar
    24   14   15 ar
    25   15   16 ar
    26   15   38 1
    27   16   17 ar
    28   16   39 1
    29   17   18 ar
    30   17   30 1
    31   18   19 ar
    32   18   40 1
    33   19   20 1
    34   20   21 1
    35   20   26 1
    36   21   22 3
    37   22   23 1
    38   23   25 1
    39   23   24 1
    40   23   41 1
    41   24   25 1
    42   24   42 1
    43   24   43 1
    44   25   44 1
    45   25   45 1
    46   26   27 1
    47   26   28 1
    48   26   29 1
@<TRIPOS>MOLECULE
CHEMBL294720
   48    51     0     0     0
SMALL
USER_CHARGES

@<TRIPOS>ATOM
      1 C1         -0.1119    1.1578    0.3911 C.ar      1 <0>        -0.0506
      2 C2          1.0764    1.8576    0.4802 C.ar      1 <0>        -0.1782
      3 C3          2.2850    1.1754    0.4663 C.ar      1 <0>         0.2019
      4 C4          2.2956   -0.2119    0.3625 C.ar      1 <0>         0.0140
      5 C5          1.1030   -0.9052    0.2738 C.ar      1 <0>        -0.0755
      6 C6         -0.0989   -0.2206    0.2881 C.ar      1 <0>        -0.1268
      7 C7         -1.3974   -0.9794    0.1912 C.3       1 <0>         0.1019
      8 O1         -1.7664   -1.1185   -1.1823 O.3       1 <0>        -0.3439
      9 C8         -2.9903   -1.8273   -1.3864 C.3       1 <0>         0.0837
     10 H1         -3.1281   -2.5512   -0.5832 H         1 <0>         0.1235
     11 C9         -4.1390   -0.8535   -1.3849 C.2       1 <0>         0.5184
     12 O2         -4.7866   -0.6904   -0.3725 O.2       1 <0>        -0.4967
     13 N1         -4.4533   -0.1628   -2.4945 N.am      1 <0>        -0.6496
     14 C10        -3.8019   -0.4204   -3.7045 C.ar      1 <0>         0.1936
     15 C11        -3.9204    0.4753   -4.7600 C.ar      1 <0>        -0.1377
     16 C12        -3.2652    0.2286   -5.9502 C.ar      1 <0>        -0.0617
     17 C13        -2.4901   -0.9092   -6.0922 C.ar      1 <0>        -0.0522
     18 C14        -2.3750   -1.8055   -5.0444 C.ar      1 <0>        -0.0701
     19 C15        -3.0345   -1.5665   -3.8543 C.ar      1 <0>        -0.1114
     20 C16        -2.9358   -2.5600   -2.7271 C.3       1 <0>         0.0852
     21 C17        -4.0568   -3.5102   -2.8120 C.1       1 <0>        -0.2232
     22 C18        -4.9509   -4.2680   -2.8798 C.1       1 <0>        -0.0493
     23 C19        -6.0719   -5.2182   -2.9647 C.3       1 <0>        -0.0683
     24 C20        -5.7367   -6.7108   -2.9354 C.3       1 <0>        -0.1566
     25 C21        -6.1938   -6.0549   -4.2399 C.3       1 <0>        -0.1582
     26 C22        -1.6138   -3.3223   -2.8373 C.3       1 <0>         0.4739
     27 F1         -1.4199   -4.0889   -1.6831 F         1 <0>        -0.1711
     28 F2         -1.6522   -4.1633   -3.9546 F         1 <0>        -0.1697
     29 F3         -0.5605   -2.4119   -2.9748 F         1 <0>        -0.1510
     30 Cl1        -1.6614   -1.2124   -7.5872 Cl        1 <0>        -0.0552
     31 F4          3.4696   -0.8804    0.3481 F         1 <0>        -0.1416
     32 N2          3.4891    1.8808    0.5559 N.pl3     1 <0>        -0.8700
     33 H2         -1.0524    1.6884    0.4064 H         1 <0>         0.1293
     34 H3          1.0647    2.9345    0.5603 H         1 <0>         0.1334
     35 H4          1.1096   -1.9822    0.1928 H         1 <0>         0.1365
     36 H5         -1.2753   -1.9668    0.6364 H         1 <0>         0.0708
     37 H6         -2.1771   -0.4346    0.7235 H         1 <0>         0.0721
     38 H7         -5.1397    0.5215   -2.4553 H         1 <0>         0.4189
     39 H8         -4.5246    1.3636   -4.6498 H         1 <0>         0.1468
     40 H9         -3.3581    0.9240   -6.7712 H         1 <0>         0.1470
     41 H10        -1.7694   -2.6926   -5.1571 H         1 <0>         0.1515
     42 H11        -6.9956   -4.8999   -2.4814 H         1 <0>         0.1368
     43 H12        -4.6860   -6.9891   -2.8532 H         1 <0>         0.1017
     44 H13        -6.4398   -7.3747   -2.4326 H         1 <0>         0.1103
     45 H14        -7.1977   -6.2873   -4.5953 H         1 <0>         0.1096
     46 H15        -5.4439   -5.9017   -5.0159 H         1 <0>         0.0999
     47 H16         3.4804    2.8481    0.6278 H         1 <0>         0.4042
     48 H17         4.3331    1.4028    0.5460 H         1 <0>         0.4038
@<TRIPOS>BOND
     1    1    6 ar
     2    1    2 ar
     3    1   33 1
     4    2    3 ar
     5    2   34 1
     6    3    4 ar
     7    3   32 1
     8    4    5 ar
     9    4   31 1
    10    5    6 ar
    11    5   35 1
    12    6    7 1
    13    7    8 1
    14    7   36 1
    15    7   37 1
    16    8    9 1
    17    9   10 1
    18    9   20 1
    19    9   11 1
    20   11   12 2
    21   11   13 am
    22   13   14 1
    23   13   38 1
    24   14   19 ar
    25   14   15 ar
    26   15   16 ar
    27   15   39 1
    28   16   17 ar
    29   16   40 1
    30   17   18 ar
    31   17   30 1
    32   18   19 ar
    33   18   41 1
    34   19   20 1
    35   20   21 1
    36   20   26 1
    37   21   22 3
    38   22   23 1
    39   23   25 1
    40   23   24 1
    41   23   42 1
    42   24   25 1
    43   24   43 1
    44   24   44 1
    45   25   45 1
    46   25   46 1
    47   26   27 1
    48   26   28 1
    49   26   29 1
    50   32   47 1
    51   32   48 1
@<TRIPOS>MOLECULE
CHEMBL206522
   40    42     0     0     0
SMALL
USER_CHARGES

@<TRIPOS>ATOM
      1 C1          0.0971    1.3675    0.7718 C.ar      1 <0>         0.0133
      2 C2          1.2745    2.0651    0.5825 C.ar      1 <0>        -0.1506
      3 C3          2.4785    1.5206    1.0076 C.ar      1 <0>         0.2213
      4 C4          2.4953    0.2743    1.6228 C.ar      1 <0>        -0.0948
      5 C5          1.3140   -0.4181    1.8089 C.ar      1 <0>         0.0174
      6 C6          0.1166    0.1280    1.3839 C.ar      1 <0>        -0.6875
      7 S1         -1.3876   -0.7577    1.6236 S.o2      1 <0>         2.7052
      8 O1         -1.1661   -1.6483    2.7085 O.2       1 <0>        -0.9584
      9 O2         -2.4305    0.2075    1.6311 O.2       1 <0>        -0.9571
     10 N1         -1.6220   -1.6973    0.2803 N.pl3     1 <0>        -1.2490
     11 Cl1         3.9983   -0.4117    2.1559 Cl        1 <0>        -0.0461
     12 N2          3.6731    2.2249    0.8169 N.am      1 <0>        -0.6594
     13 C7          3.6441    3.5548    0.6003 C.2       1 <0>         0.5432
     14 O3          2.5939    4.1577    0.6692 O.2       1 <0>        -0.4867
     15 C8          4.9165    4.2928    0.2724 C.3       1 <0>        -0.1626
     16 S2          4.5508    6.0541    0.0383 S.3       1 <0>         0.1300
     17 C9          6.1178    6.7690   -0.3332 C.2       1 <0>         0.2070
     18 N3          7.2669    6.1340   -0.4186 N.2       1 <0>        -0.3280
     19 N4          8.2135    6.9530   -0.7054 N.2       1 <0>        -0.0197
     20 N5          7.7514    8.1505   -0.8230 N.2       1 <0>        -0.0457
     21 N6          6.3667    8.0777   -0.5910 N.pl3     1 <0>        -0.3182
     22 C10         5.4418    9.1317   -0.6173 C.ar      1 <0>         0.1383
     23 C11         4.2501    8.9939   -1.3155 C.ar      1 <0>        -0.0879
     24 C12         3.3403   10.0343   -1.3392 C.ar      1 <0>        -0.0159
     25 C13         3.6169   11.2127   -0.6680 C.ar      1 <0>        -0.0754
     26 C14         4.8031   11.3530    0.0277 C.ar      1 <0>        -0.0807
     27 C15         5.7141   10.3136    0.0602 C.ar      1 <0>        -0.0142
     28 Cl2         7.2003   10.4880    0.9402 Cl        1 <0>        -0.0229
     29 Cl3         1.8496    9.8628   -2.2122 Cl        1 <0>        -0.0321
     30 H1         -0.8403    1.7929    0.4451 H         1 <0>         0.1566
     31 H2          1.2582    3.0332    0.1039 H         1 <0>         0.1752
     32 H3          1.3259   -1.3866    2.2868 H         1 <0>         0.1601
     33 H4         -0.9767   -1.6779   -0.4437 H         1 <0>         0.4172
     34 H5         -2.4046   -2.2670    0.2174 H         1 <0>         0.4230
     35 H6          4.5218    1.7558    0.8405 H         1 <0>         0.4232
     36 H7          5.6262    4.1748    1.0912 H         1 <0>         0.1413
     37 H8          5.3468    3.8863   -0.6428 H         1 <0>         0.1428
     38 H9          4.0341    8.0748   -1.8400 H         1 <0>         0.1568
     39 H10         2.9048   12.0244   -0.6883 H         1 <0>         0.1591
     40 H11         5.0166   12.2739    0.5499 H         1 <0>         0.1619
@<TRIPOS>BOND
     1    1    6 ar
     2    1    2 ar
     3    1   30 1
     4    2    3 ar
     5    2   31 1
     6    3    4 ar
     7    3   12 1
     8    4    5 ar
     9    4   11 1
    10    5    6 ar
    11    5   32 1
    12    6    7 1
    13    7    8 2
    14    7    9 2
    15    7   10 1
    16   10   33 1
    17   10   34 1
    18   12   13 am
    19   12   35 1
    20   13   14 2
    21   13   15 1
    22   15   16 1
    23   15   36 1
    24   15   37 1
    25   16   17 1
    26   17   21 1
    27   17   18 2
    28   18   19 1
    29   19   20 2
    30   20   21 1
    31   21   22 1
    32   22   27 ar
    33   22   23 ar
    34   23   24 ar
    35   23   38 1
    36   24   25 ar
    37   24   29 1
    38   25   26 ar
    39   25   39 1
    40   26   27 ar
    41   26   40 1
    42   27   28 1
@<TRIPOS>MOLECULE
CHEMBL323072
   49    52     0     0     0
SMALL
USER_CHARGES

@<TRIPOS>ATOM
      1 C1         -0.0187    1.5258    0.0104 C.3       1 <0>        -0.1714
      2 C2          0.0021   -0.0041    0.0020 C.3       1 <0>         0.1348
      3 N1          0.6878   -0.4765   -1.2033 N.pl3     1 <0>        -0.5768
      4 C3         -0.0294   -0.7093   -2.3768 C.ar      1 <0>         0.3785
      5 C4          0.2592    0.0020   -3.5389 C.ar      1 <0>         0.0967
      6 C5         -0.4390   -0.3005   -4.7037 C.ar      1 <0>        -0.0717
      7 C6         -1.4212   -1.2794   -4.6556 C.ar      1 <0>        -0.1340
      8 C7         -1.6761   -1.9213   -3.4595 C.ar      1 <0>         0.1843
      9 N2         -0.9871   -1.6263   -2.3726 N.ar      1 <0>        -0.4670
     10 Cl1        -2.9188   -3.1312   -3.3841 Cl        1 <0>        -0.0151
     11 N3          1.1873    1.0408   -3.5541 N.am      1 <0>        -0.5365
     12 C8          2.3528    1.0748   -2.9252 C.2       1 <0>         0.5772
     13 O1          3.0365    2.0688   -3.0757 O.2       1 <0>        -0.5148
     14 C9          2.8892    0.0171   -2.0630 C.ar      1 <0>        -0.1957
     15 C10         2.0554   -0.6913   -1.1915 C.ar      1 <0>         0.4240
     16 N4          2.5741   -1.5848   -0.3616 N.ar      1 <0>        -0.4888
     17 C11         3.8622   -1.8676   -0.3601 C.ar      1 <0>         0.1743
     18 C12         4.7345   -1.2399   -1.2304 C.ar      1 <0>        -0.1686
     19 C13         4.2542   -0.2882   -2.0933 C.ar      1 <0>         0.0156
     20 C14         6.1974   -1.6016   -1.2327 C.3       1 <0>        -0.5565
     21 S1          6.4839   -2.9550   -2.4062 S.o2      1 <0>         2.4874
     22 O2          5.8672   -4.1468   -1.9388 O.2       1 <0>        -0.9251
     23 O3          6.2709   -2.5027   -3.7364 O.2       1 <0>        -0.9272
     24 C15         8.2136   -3.2771   -2.3124 C.ar      1 <0>        -0.6617
     25 C16         9.0884   -2.6023   -3.1432 C.ar      1 <0>        -0.0249
     26 C17        10.4455   -2.8550   -3.0696 C.ar      1 <0>        -0.1387
     27 C18        10.9278   -3.7823   -2.1650 C.ar      1 <0>        -0.0621
     28 C19        10.0531   -4.4565   -1.3336 C.ar      1 <0>        -0.1386
     29 C20         8.6964   -4.2006   -1.4042 C.ar      1 <0>        -0.0245
     30 C21         0.8376    2.2201   -4.3500 C.3       1 <0>         0.0639
     31 H1          1.0039    1.9031    0.0027 H         1 <0>         0.0550
     32 H2         -0.5459    1.8868   -0.8726 H         1 <0>         0.0551
     33 H3         -0.5289    1.8773    0.9072 H         1 <0>         0.0748
     34 H4          0.5293   -0.3651    0.8851 H         1 <0>         0.0871
     35 H5         -1.0205   -0.3814    0.0098 H         1 <0>         0.0871
     36 H6         -0.2206    0.2159   -5.6268 H         1 <0>         0.1609
     37 H7         -1.9797   -1.5367   -5.5434 H         1 <0>         0.1600
     38 H8          4.2426   -2.6030    0.3332 H         1 <0>         0.1775
     39 H9          4.9193    0.2181   -2.7772 H         1 <0>         0.1583
     40 H10         6.7859   -0.7333   -1.5288 H         1 <0>         0.1523
     41 H11         6.4950   -1.9185   -0.2331 H         1 <0>         0.1544
     42 H12         8.7116   -1.8778   -3.8500 H         1 <0>         0.1429
     43 H13        11.1288   -2.3283   -3.7192 H         1 <0>         0.1355
     44 H14        11.9879   -3.9803   -2.1080 H         1 <0>         0.1334
     45 H15        10.4299   -5.1812   -0.6270 H         1 <0>         0.1358
     46 H16         8.0134   -4.7246   -0.7520 H         1 <0>         0.1437
     47 H17         0.2956    2.9313   -3.7267 H         1 <0>         0.0704
     48 H18         1.7476    2.6870   -4.7267 H         1 <0>         0.0966
     49 H19         0.2095    1.9193   -5.1885 H         1 <0>         0.0822
@<TRIPOS>BOND
     1    1    2 1
     2    1   31 1
     3    1   32 1
     4    1   33 1
     5    2    3 1
     6    2   34 1
     7    2   35 1
     8    3   15 1
     9    3    4 1
    10    4    9 ar
    11    4    5 ar
    12    5    6 ar
    13    5   11 1
    14    6    7 ar
    15    6   36 1
    16    7    8 ar
    17    7   37 1
    18    8    9 ar
    19    8   10 1
    20   11   12 am
    21   11   30 1
    22   12   13 2
    23   12   14 1
    24   14   19 ar
    25   14   15 ar
    26   15   16 ar
    27   16   17 ar
    28   17   18 ar
    29   17   38 1
    30   18   19 ar
    31   18   20 1
    32   19   39 1
    33   20   21 1
    34   20   40 1
    35   20   41 1
    36   21   22 2
    37   21   23 2
    38   21   24 1
    39   24   29 ar
    40   24   25 ar
    41   25   26 ar
    42   25   42 1
    43   26   27 ar
    44   26   43 1
    45   27   28 ar
    46   27   44 1
    47   28   29 ar
    48   28   45 1
    49   29   46 1
    50   30   47 1
    51   30   48 1
    52   30   49 1
@<TRIPOS>MOLECULE
CHEMBL253018
   39    42     0     0     0
SMALL
USER_CHARGES

@<TRIPOS>ATOM
      1 C1         -0.0184    1.5028    0.0103 C.3       1 <0>        -0.0848
      2 C2          0.0021   -0.0041    0.0020 C.2       1 <0>         0.0132
      3 C3          0.0085   -0.7999   -1.0872 C.2       1 <0>        -0.0181
      4 N1          0.0279   -2.0737   -0.6804 N.2       1 <0>        -0.3691
      5 C4          0.0340   -2.1090    0.6357 C.2       1 <0>         0.1882
      6 N2          0.0236   -0.8238    1.0986 N.pl3     1 <0>        -0.5606
      7 H1          0.0283   -0.5449    2.0277 H         1 <0>         0.4168
      8 C5          0.0537   -3.3253    1.4663 C.2       1 <0>         0.3003
      9 C6          0.0745   -4.5985    0.9923 C.2       1 <0>        -0.6935
     10 C7          0.0887   -5.4849    2.1536 C.ar      1 <0>        -0.0272
     11 C8          0.1113   -6.8746    2.3097 C.ar      1 <0>        -0.0685
     12 C9          0.1199   -7.4162    3.5644 C.ar      1 <0>        -0.0422
     13 C10         0.1060   -6.5968    4.6866 C.ar      1 <0>        -0.0868
     14 C11         0.0837   -5.2255    4.5556 C.ar      1 <0>        -0.1063
     15 C12         0.0750   -4.6513    3.2884 C.ar      1 <0>         0.1007
     16 N3          0.0599   -3.3476    2.8437 N.pl3     1 <0>        -0.5780
     17 H2          0.0519   -2.5634    3.4145 H         1 <0>         0.4201
     18 Cl1         0.1480   -9.1412    3.7578 Cl        1 <0>        -0.0598
     19 S1          0.0818   -5.0874   -0.7005 S.o2      1 <0>         2.5935
     20 O1         -0.4474   -6.4055   -0.7448 O.2       1 <0>        -0.9444
     21 O2         -0.4872   -4.0130   -1.4361 O.2       1 <0>        -0.8831
     22 C13         1.7669   -5.2043   -1.2018 C.ar      1 <0>        -0.6532
     23 C14         2.4105   -4.0986   -1.7254 C.ar      1 <0>        -0.0157
     24 C15         3.7326   -4.1902   -2.1186 C.ar      1 <0>        -0.1457
     25 C16         4.4112   -5.3874   -1.9879 C.ar      1 <0>        -0.0666
     26 C17         3.7679   -6.4929   -1.4634 C.ar      1 <0>        -0.1427
     27 C18         2.4471   -6.4001   -1.0662 C.ar      1 <0>        -0.0241
     28 H3          1.0042    1.8801    0.0026 H         1 <0>         0.0807
     29 H4         -0.5455    1.8639   -0.8728 H         1 <0>         0.0918
     30 H5         -0.5286    1.8543    0.9071 H         1 <0>         0.0680
     31 H6         -0.0008   -0.4650   -2.1140 H         1 <0>         0.1838
     32 H7          0.1216   -7.5174    1.4419 H         1 <0>         0.1529
     33 H8          0.1123   -7.0395    5.6717 H         1 <0>         0.1440
     34 H9          0.0726   -4.5979    5.4344 H         1 <0>         0.1365
     35 H10         1.8803   -3.1633   -1.8276 H         1 <0>         0.1488
     36 H11         4.2352   -3.3266   -2.5284 H         1 <0>         0.1304
     37 H12         5.4439   -5.4592   -2.2958 H         1 <0>         0.1291
     38 H13         4.2979   -7.4283   -1.3615 H         1 <0>         0.1322
     39 H14         1.9455   -7.2627   -0.6530 H         1 <0>         0.1391
@<TRIPOS>BOND
     1    1    2 1
     2    1   28 1
     3    1   29 1
     4    1   30 1
     5    2    6 1
     6    2    3 2
     7    3    4 1
     8    3   31 1
     9    4    5 2
    10    5    6 1
    11    5    8 1
    12    6    7 1
    13    8   16 1
    14    8    9 2
    15    9   10 1
    16    9   19 1
    17   10   15 ar
    18   10   11 ar
    19   11   12 ar
    20   11   32 1
    21   12   13 ar
    22   12   18 1
    23   13   14 ar
    24   13   33 1
    25   14   15 ar
    26   14   34 1
    27   15   16 1
    28   16   17 1
    29   19   20 2
    30   19   21 2
    31   19   22 1
    32   22   27 ar
    33   22   23 ar
    34   23   24 ar
    35   23   35 1
    36   24   25 ar
    37   24   36 1
    38   25   26 ar
    39   25   37 1
    40   26   27 ar
    41   26   38 1
    42   27   39 1
@<TRIPOS>MOLECULE
CHEMBL253018__1
   40    43     0     0     0
SMALL
USER_CHARGES

@<TRIPOS>ATOM
      1 C1          0.1654    1.2004    1.3173 C.3       1 <0>        -0.1044
      2 C2          0.1878   -0.2789    1.0306 C.2       1 <0>         0.0865
      3 C3          0.3892   -0.8600   -0.1700 C.2       1 <0>         0.0252
      4 N1          0.3364   -2.1869   -0.0120 N.pl3     1 <0>        -0.4219
      5 C4          0.1073   -2.4645    1.2544 C.cat     1 <0>         0.3373
      6 N2          0.0136   -1.2870    1.9407 N.pl3     1 <0>        -0.4960
      7 H1         -0.1479   -1.1845    2.8917 H         1 <0>         0.4636
      8 C5         -0.0210   -3.8131    1.8327 C.2       1 <0>         0.2028
      9 C6         -0.5960   -4.8791    1.2170 C.2       1 <0>        -0.6596
     10 C7         -0.5071   -6.0050    2.1438 C.ar      1 <0>        -0.0300
     11 C8         -0.9138   -7.3418    2.0840 C.ar      1 <0>        -0.0696
     12 C9         -0.6807   -8.1700    3.1459 C.ar      1 <0>        -0.0295
     13 C10        -0.0431   -7.6939    4.2851 C.ar      1 <0>        -0.0638
     14 C11         0.3657   -6.3808    4.3651 C.ar      1 <0>        -0.1012
     15 C12         0.1397   -5.5191    3.2964 C.ar      1 <0>         0.1180
     16 N3          0.4286   -4.1899    3.0792 N.pl3     1 <0>        -0.5457
     17 H2          0.8785   -3.6063    3.7100 H         1 <0>         0.4320
     18 Cl1        -1.1856   -9.8293    3.0712 Cl        1 <0>        -0.0352
     19 S1         -1.3130   -4.8996   -0.3924 S.o2      1 <0>         2.5905
     20 O1         -2.4001   -5.8133   -0.3411 O.2       1 <0>        -0.8958
     21 O2         -1.4760   -3.5427   -0.7817 O.2       1 <0>        -0.9563
     22 C13        -0.1200   -5.5973   -1.4854 C.ar      1 <0>        -0.6664
     23 C14         0.6829   -4.7718   -2.2502 C.ar      1 <0>        -0.0454
     24 C15         1.6188   -5.3191   -3.1077 C.ar      1 <0>        -0.1251
     25 C16         1.7522   -6.6919   -3.2001 C.ar      1 <0>        -0.0498
     26 C17         0.9499   -7.5174   -2.4347 C.ar      1 <0>        -0.1219
     27 C18         0.0169   -6.9700   -1.5740 C.ar      1 <0>        -0.0111
     28 H3          1.1727    1.5388    1.5601 H         1 <0>         0.1085
     29 H4         -0.1958    1.7353    0.4389 H         1 <0>         0.1165
     30 H5         -0.4970    1.3971    2.1603 H         1 <0>         0.0965
     31 H6          0.5633   -0.3414   -1.1013 H         1 <0>         0.2373
     32 H7         -1.4104   -7.7183    1.2019 H         1 <0>         0.1552
     33 H8          0.1335   -8.3602    5.1165 H         1 <0>         0.1567
     34 H9          0.8601   -6.0210    5.2554 H         1 <0>         0.1488
     35 H10         0.5787   -3.6993   -2.1779 H         1 <0>         0.1210
     36 H11         2.2456   -4.6742   -3.7057 H         1 <0>         0.1429
     37 H12         2.4829   -7.1196   -3.8706 H         1 <0>         0.1434
     38 H13         1.0538   -8.5899   -2.5072 H         1 <0>         0.1459
     39 H14        -0.6074   -7.6148   -0.9733 H         1 <0>         0.1456
     40 H15         0.4491   -2.8415   -0.7189 H         1 <0>         0.4544
@<TRIPOS>BOND
     1    1    2 1
     2    1   28 1
     3    1   29 1
     4    1   30 1
     5    2    6 1
     6    2    3 2
     7    3    4 1
     8    3   31 1
     9    4    5 2
    10    4   40 1
    11    5    6 1
    12    5    8 1
    13    6    7 1
    14    8   16 1
    15    8    9 2
    16    9   10 1
    17    9   19 1
    18   10   15 ar
    19   10   11 ar
    20   11   12 ar
    21   11   32 1
    22   12   13 ar
    23   12   18 1
    24   13   14 ar
    25   13   33 1
    26   14   15 ar
    27   14   34 1
    28   15   16 1
    29   16   17 1
    30   19   20 2
    31   19   21 2
    32   19   22 1
    33   22   27 ar
    34   22   23 ar
    35   23   24 ar
    36   23   35 1
    37   24   25 ar
    38   24   36 1
    39   25   26 ar
    40   25   37 1
    41   26   27 ar
    42   26   38 1
    43   27   39 1
@<TRIPOS>MOLECULE
CHEMBL253018__2
   39    42     0     0     0
SMALL
USER_CHARGES

@<TRIPOS>ATOM
      1 C1         -0.0127    1.0858    0.0080 C.3       1 <0>        -0.0716
      2 C2         -0.7416    1.5850   -1.2129 C.2       1 <0>         0.0082
      3 C3         -0.1815    1.8570   -2.4096 C.2       1 <0>        -0.0172
      4 N1         -1.1868    2.2815   -3.2366 N.pl3     1 <0>        -0.5617
      5 C4         -2.3416    2.2540   -2.5072 C.2       1 <0>         0.1929
      6 N2         -2.0541    1.8279   -1.2951 N.2       1 <0>        -0.3696
      7 H1         -1.0963    2.5507   -4.1641 H         1 <0>         0.4185
      8 C5         -3.6794    2.6313   -2.9946 C.2       1 <0>         0.2990
      9 C6         -4.8197    2.6042   -2.2562 C.2       1 <0>        -0.6926
     10 C7         -5.9023    3.0538   -3.1282 C.ar      1 <0>        -0.0276
     11 C8         -7.2774    3.2352   -2.9484 C.ar      1 <0>        -0.0684
     12 C9         -8.0445    3.6805   -3.9881 C.ar      1 <0>        -0.0421
     13 C10        -7.4690    3.9542   -5.2228 C.ar      1 <0>        -0.0866
     14 C11        -6.1166    3.7820   -5.4218 C.ar      1 <0>        -0.1062
     15 C12        -5.3154    3.3305   -4.3779 C.ar      1 <0>         0.1010
     16 N3         -3.9669    3.0718   -4.2678 N.pl3     1 <0>        -0.5775
     17 H2         -3.3178    3.1807   -4.9804 H         1 <0>         0.4204
     18 Cl1        -9.7513    3.9055   -3.7645 Cl        1 <0>        -0.0597
     19 S1         -4.9651    2.1186   -0.5687 S.o2      1 <0>         2.5927
     20 O1         -6.3127    1.7098   -0.3784 O.2       1 <0>        -0.9444
     21 O2         -3.8637    1.2632   -0.2958 O.2       1 <0>        -0.8821
     22 C13        -4.7344    3.5648    0.4112 C.ar      1 <0>        -0.6531
     23 C14        -3.4662    3.9205    0.8305 C.ar      1 <0>        -0.0159
     24 C15        -3.2852    5.0550    1.5993 C.ar      1 <0>        -0.1455
     25 C16        -4.3724    5.8341    1.9483 C.ar      1 <0>        -0.0665
     26 C17        -5.6406    5.4789    1.5283 C.ar      1 <0>        -0.1425
     27 C18        -5.8210    4.3467    0.7559 C.ar      1 <0>        -0.0242
     28 H3          0.0021   -0.0041    0.0020 H         1 <0>         0.0739
     29 H4          1.0099    1.4631    0.0003 H         1 <0>         0.0705
     30 H5         -0.5229    1.4373    0.9048 H         1 <0>         0.0769
     31 H6          0.8629    1.7588   -2.6668 H         1 <0>         0.1881
     32 H7         -7.7314    3.0237   -1.9915 H         1 <0>         0.1529
     33 H8         -8.0882    4.3051   -6.0351 H         1 <0>         0.1441
     34 H9         -5.6795    3.9977   -6.3855 H         1 <0>         0.1367
     35 H10        -2.6167    3.3118    0.5578 H         1 <0>         0.1483
     36 H11        -2.2944    5.3325    1.9275 H         1 <0>         0.1304
     37 H12        -4.2311    6.7201    2.5495 H         1 <0>         0.1292
     38 H13        -6.4901    6.0873    1.8012 H         1 <0>         0.1323
     39 H14        -6.8114    4.0712    0.4246 H         1 <0>         0.1391
@<TRIPOS>BOND
     1    1   28 1
     2    1   29 1
     3    1   30 1
     4    1    2 1
     5    2    6 1
     6    2    3 2
     7    3   31 1
     8    3    4 1
     9    4    5 1
    10    4    7 1
    11    5    8 1
    12    5    6 2
    13    8   16 1
    14    8    9 2
    15    9   10 1
    16    9   19 1
    17   10   15 ar
    18   10   11 ar
    19   11   12 ar
    20   11   32 1
    21   12   13 ar
    22   12   18 1
    23   13   14 ar
    24   13   33 1
    25   14   15 ar
    26   14   34 1
    27   15   16 1
    28   16   17 1
    29   19   20 2
    30   19   21 2
    31   19   22 1
    32   22   27 ar
    33   22   23 ar
    34   23   24 ar
    35   23   35 1
    36   24   25 ar
    37   24   36 1
    38   25   26 ar
    39   25   37 1
    40   26   27 ar
    41   26   38 1
    42   27   39 1
@<TRIPOS>MOLECULE
CHEMBL357221
   41    44     0     0     0
SMALL
USER_CHARGES

@<TRIPOS>ATOM
      1 C1         -0.0187    1.5258    0.0104 C.3       1 <0>        -0.1711
      2 C2          0.0021   -0.0041    0.0020 C.3       1 <0>         0.1371
      3 N1         -1.3723   -0.5112    0.0124 N.pl3     1 <0>        -0.5780
      4 C3         -2.0200   -0.7546    1.2117 C.ar      1 <0>         0.4165
      5 C4         -3.2163   -0.0808    1.5073 C.ar      1 <0>        -0.2018
      6 C5         -3.8973   -0.4035    2.6864 C.ar      1 <0>        -0.0013
      7 C6         -3.3374   -1.3440    3.5340 C.ar      1 <0>        -0.1919
      8 C7         -2.1321   -1.9317    3.1963 C.ar      1 <0>         0.1510
      9 N2         -1.5174   -1.6299    2.0692 N.ar      1 <0>        -0.4990
     10 C8         -3.7306    0.9722    0.6275 C.2       1 <0>         0.5767
     11 O1         -4.2309    1.9438    1.1603 O.2       1 <0>        -0.5251
     12 N3         -3.6991    0.9593   -0.6969 N.am      1 <0>        -0.5371
     13 C9         -3.2062   -0.0596   -1.5097 C.ar      1 <0>         0.0826
     14 C10        -2.0454   -0.7488   -1.1850 C.ar      1 <0>         0.3766
     15 N4         -1.5631   -1.6638   -2.0142 N.ar      1 <0>        -0.4647
     16 C11        -2.1811   -1.9783   -3.1480 C.ar      1 <0>         0.2223
     17 C12        -3.3716   -1.3482   -3.5061 C.ar      1 <0>        -0.1617
     18 C13        -3.8887   -0.3839   -2.6799 C.ar      1 <0>        -0.0703
     19 C14        -1.6006   -3.0049   -4.0372 C.2       1 <0>         0.0303
     20 C15        -0.4514   -3.7035   -3.8138 C.2       1 <0>        -0.1263
     21 C16        -0.2704   -4.5701   -4.9031 C.2       1 <0>        -0.2080
     22 C17        -1.3021   -4.3808   -5.7546 C.2       1 <0>         0.0156
     23 N5         -2.1252   -3.4290   -5.2320 N.pl3     1 <0>        -0.5515
     24 H1         -2.9440   -3.1039   -5.6379 H         1 <0>         0.4145
     25 C18        -4.2391    2.1388   -1.3777 C.3       1 <0>         0.0585
     26 H2          1.0039    1.9031    0.0027 H         1 <0>         0.0727
     27 H3         -0.5459    1.8868   -0.8726 H         1 <0>         0.0538
     28 H4         -0.5289    1.8773    0.9072 H         1 <0>         0.0540
     29 H5          0.5123   -0.3556   -0.8948 H         1 <0>         0.0847
     30 H6          0.5293   -0.3651    0.8851 H         1 <0>         0.0846
     31 H7         -4.8369    0.0702    2.9296 H         1 <0>         0.1479
     32 H8         -3.8377   -1.6163    4.4516 H         1 <0>         0.1489
     33 H9         -1.6860   -2.6505    3.8677 H         1 <0>         0.1683
     34 H10        -3.8809   -1.6187   -4.4192 H         1 <0>         0.1386
     35 H11        -4.8082    0.1203   -2.9381 H         1 <0>         0.1484
     36 H12         0.1995   -3.6076   -2.9573 H         1 <0>         0.1447
     37 H13         0.5469   -5.2633   -5.0367 H         1 <0>         0.1417
     38 H14        -1.4516   -4.8997   -6.6899 H         1 <0>         0.1712
     39 H15        -4.5901    2.8571   -0.6368 H         1 <0>         0.1065
     40 H16        -3.4588    2.5962   -1.9860 H         1 <0>         0.0700
     41 H17        -5.0701    1.8406   -2.0169 H         1 <0>         0.0701
@<TRIPOS>BOND
     1    1    2 1
     2    1   26 1
     3    1   27 1
     4    1   28 1
     5    2    3 1
     6    2   29 1
     7    2   30 1
     8    3   14 1
     9    3    4 1
    10    4    9 ar
    11    4    5 ar
    12    5    6 ar
    13    5   10 1
    14    6    7 ar
    15    6   31 1
    16    7    8 ar
    17    7   32 1
    18    8    9 ar
    19    8   33 1
    20   10   11 2
    21   10   12 am
    22   12   13 1
    23   12   25 1
    24   13   18 ar
    25   13   14 ar
    26   14   15 ar
    27   15   16 ar
    28   16   17 ar
    29   16   19 1
    30   17   18 ar
    31   17   34 1
    32   18   35 1
    33   19   23 1
    34   19   20 2
    35   20   21 1
    36   20   36 1
    37   21   22 2
    38   21   37 1
    39   22   23 1
    40   22   38 1
    41   23   24 1
    42   25   39 1
    43   25   40 1
    44   25   41 1
@<TRIPOS>MOLECULE
CHEMBL36930
   33    34     0     0     0
SMALL
USER_CHARGES

@<TRIPOS>ATOM
      1 C1         -0.0108    1.3878    0.0088 C.ar      1 <0>        -0.0591
      2 C2          1.1767    2.0948    0.0024 C.ar      1 <0>        -0.1614
      3 C3          2.3853    1.4191   -0.0131 C.ar      1 <0>         0.1355
      4 C4          2.4037    0.0350   -0.0216 C.ar      1 <0>        -0.1568
      5 C5          1.2138   -0.6720   -0.0147 C.ar      1 <0>         0.1355
      6 C6          0.0064    0.0059    0.0002 C.ar      1 <0>        -0.1614
      7 F1          1.2303   -2.0229   -0.0230 F         1 <0>        -0.1267
      8 C7          3.7184   -0.7015   -0.0389 C.3       1 <0>        -0.0910
      9 C8          4.1774   -0.9595    1.3976 C.3       1 <0>         0.1455
     10 N1          5.4554   -1.6755    1.3808 N.am      1 <0>        -0.7417
     11 C9          6.0547   -2.0119    2.5402 C.2       1 <0>         0.6941
     12 O1          5.5347   -1.7212    3.6000 O.2       1 <0>        -0.5214
     13 N2          7.2304   -2.6706    2.5247 N.am      1 <0>        -0.6682
     14 C10         7.9027   -2.9252    3.7195 C.ar      1 <0>         0.3827
     15 C11         9.1636   -3.5102    3.6889 C.ar      1 <0>        -0.1973
     16 C12         9.8203   -3.7572    4.8813 C.ar      1 <0>        -0.0350
     17 C13         9.1899   -3.4088    6.0694 C.ar      1 <0>        -0.1253
     18 C14         7.9359   -2.8305    6.0249 C.ar      1 <0>         0.1524
     19 N3          7.3368   -2.6027    4.8715 N.ar      1 <0>        -0.4600
     20 Cl1         9.9694   -3.6973    7.5935 Cl        1 <0>        -0.0545
     21 F2          3.5460    2.1104   -0.0203 F         1 <0>        -0.1266
     22 H1         -0.9529    1.9156    0.0250 H         1 <0>         0.1464
     23 H2          1.1621    3.1747    0.0090 H         1 <0>         0.1454
     24 H3         -0.9222   -0.5456    0.0056 H         1 <0>         0.1454
     25 H4          3.5953   -1.6524   -0.5573 H         1 <0>         0.0901
     26 H5          4.4653   -0.0996   -0.5565 H         1 <0>         0.0901
     27 H6          4.3005   -0.0086    1.9160 H         1 <0>         0.0725
     28 H7          3.4304   -1.5614    1.9152 H         1 <0>         0.0726
     29 H8          5.8703   -1.9075    0.5352 H         1 <0>         0.3977
     30 H9          7.6089   -2.9676    1.6824 H         1 <0>         0.4158
     31 H10         9.6242   -3.7687    2.7468 H         1 <0>         0.1460
     32 H11        10.8004   -4.2108    4.8884 H         1 <0>         0.1501
     33 H12         7.4415   -2.5578    6.9455 H         1 <0>         0.1689
@<TRIPOS>BOND
     1    1    6 ar
     2    1    2 ar
     3    1   22 1
     4    2    3 ar
     5    2   23 1
     6    3    4 ar
     7    3   21 1
     8    4    5 ar
     9    4    8 1
    10    5    6 ar
    11    5    7 1
    12    6   24 1
    13    8    9 1
    14    8   25 1
    15    8   26 1
    16    9   10 1
    17    9   27 1
    18    9   28 1
    19   10   11 am
    20   10   29 1
    21   11   12 2
    22   11   13 am
    23   13   14 1
    24   13   30 1
    25   14   19 ar
    26   14   15 ar
    27   15   16 ar
    28   15   31 1
    29   16   17 ar
    30   16   32 1
    31   17   18 ar
    32   17   20 1
    33   18   19 ar
    34   18   33 1
@<TRIPOS>MOLECULE
CHEMBL98159
   40    42     0     0     0
SMALL
USER_CHARGES

@<TRIPOS>ATOM
      1 C1         -0.0187    1.5258    0.0104 C.3       1 <0>        -0.1509
      2 C2          0.0021   -0.0041    0.0020 C.3       1 <0>        -0.0695
      3 C3          0.7074   -0.4901   -1.2379 C.2       1 <0>        -0.1939
      4 C4          0.0003   -0.6217   -2.4412 C.2       1 <0>        -0.0018
      5 C5          0.6542   -1.0625   -3.5541 C.2       1 <0>        -0.2138
      6 C6          2.0218   -1.3748   -3.4699 C.2       1 <0>         0.5203
      7 N1          2.6734   -1.2380   -2.2994 N.am      1 <0>        -0.6042
      8 C7          2.0254   -0.7945   -1.1919 C.2       1 <0>         0.1612
      9 C8          2.7803   -0.6452    0.1038 C.3       1 <0>        -0.1319
     10 O1          2.6192   -1.7707   -4.4580 O.2       1 <0>        -0.5454
     11 C9         -0.0822   -1.2134   -4.8603 C.3       1 <0>        -0.0515
     12 C10         0.1048    0.0516   -5.7003 C.3       1 <0>        -0.0406
     13 C11        -0.6317   -0.0993   -7.0064 C.2       1 <0>         0.0448
     14 C12        -1.9040    0.2648   -7.2162 C.2       1 <0>        -0.2100
     15 C13        -2.1979   -0.0631   -8.6164 C.ar      1 <0>        -0.1295
     16 C14        -3.3207    0.0653   -9.4327 C.ar      1 <0>        -0.0733
     17 C15        -3.2638   -0.3510  -10.7339 C.ar      1 <0>        -0.1357
     18 C16        -2.0967   -0.9000  -11.2454 C.ar      1 <0>        -0.0955
     19 C17        -0.9767   -1.0349  -10.4533 C.ar      1 <0>        -0.1063
     20 C18        -1.0131   -0.6178   -9.1285 C.ar      1 <0>         0.0500
     21 O2         -0.1054   -0.6135   -8.1318 O.3       1 <0>        -0.1895
     22 H1          1.0039    1.9031    0.0027 H         1 <0>         0.0544
     23 H2         -0.5459    1.8868   -0.8726 H         1 <0>         0.0565
     24 H3         -0.5289    1.8773    0.9072 H         1 <0>         0.0596
     25 H4          0.5293   -0.3651    0.8851 H         1 <0>         0.0747
     26 H5         -1.0205   -0.3814    0.0098 H         1 <0>         0.0752
     27 H6         -1.0507   -0.3770   -2.4865 H         1 <0>         0.1362
     28 H7          2.7296   -1.5791    0.6636 H         1 <0>         0.0910
     29 H8          3.8221   -0.4047   -0.1082 H         1 <0>         0.0780
     30 H9          2.3352    0.1564    0.6933 H         1 <0>         0.0968
     31 H10         3.6173   -1.4556   -2.2478 H         1 <0>         0.4145
     32 H11         0.3133   -2.0718   -5.4032 H         1 <0>         0.0839
     33 H12        -1.1434   -1.3654   -4.6635 H         1 <0>         0.0796
     34 H13        -0.2907    0.9101   -5.1573 H         1 <0>         0.0971
     35 H14         1.1660    0.2036   -5.8970 H         1 <0>         0.0883
     36 H15        -2.5778    0.7100   -6.4991 H         1 <0>         0.1576
     37 H16        -4.2316    0.4913   -9.0389 H         1 <0>         0.1269
     38 H17        -4.1328   -0.2521  -11.3674 H         1 <0>         0.1294
     39 H18        -2.0657   -1.2254  -12.2748 H         1 <0>         0.1352
     40 H19        -0.0734   -1.4639  -10.8613 H         1 <0>         0.1320
@<TRIPOS>BOND
     1    1    2 1
     2    1   22 1
     3    1   23 1
     4    1   24 1
     5    2   25 1
     6    2   26 1
     7    2    3 1
     8    3    8 2
     9    3    4 1
    10    4   27 1
    11    4    5 2
    12    5    6 1
    13    5   11 1
    14    6   10 2
    15    6    7 am
    16    7   31 1
    17    7    8 1
    18    8    9 1
    19    9   28 1
    20    9   29 1
    21    9   30 1
    22   11   12 1
    23   11   32 1
    24   11   33 1
    25   12   13 1
    26   12   34 1
    27   12   35 1
    28   13   21 1
    29   13   14 2
    30   14   15 1
    31   14   36 1
    32   15   20 ar
    33   15   16 ar
    34   16   17 ar
    35   16   37 1
    36   17   18 ar
    37   17   38 1
    38   18   19 ar
    39   18   39 1
    40   19   20 ar
    41   19   40 1
    42   20   21 1
@<TRIPOS>MOLECULE
CHEMBL309896
   37    40     0     0     0
SMALL
USER_CHARGES

@<TRIPOS>ATOM
      1 C1         -0.0167    1.3793    0.0096 C.ar      1 <0>        -0.0719
      2 C2          1.1938    2.0588    0.0017 C.ar      1 <0>        -0.1621
      3 C3          2.3752    1.3407   -0.0134 C.ar      1 <0>         0.1058
      4 N1          2.3666    0.0233   -0.0204 N.ar      1 <0>        -0.4668
      5 C4          1.2309   -0.6650   -0.0133 C.ar      1 <0>         0.2224
      6 C5          0.0021   -0.0041    0.0020 C.ar      1 <0>        -0.1424
      7 C6          1.2677   -2.0965   -0.0213 C.1       1 <0>        -0.0915
      8 C7          1.2978   -3.2701   -0.0279 C.1       1 <0>        -0.1438
      9 C8          1.3356   -4.7416   -0.0362 C.3       1 <0>         0.3660
     10 C9         -0.0895   -5.2445   -0.0253 C.ar      1 <0>        -0.1195
     11 C10        -0.9608   -4.9021    0.9830 C.ar      1 <0>        -0.0423
     12 C11        -2.2606   -5.3818    0.9598 C.ar      1 <0>        -0.0640
     13 C12        -2.6774   -6.2019   -0.0742 C.ar      1 <0>        -0.0611
     14 C13        -1.8038   -6.5460   -1.0872 C.ar      1 <0>        -0.1455
     15 C14        -0.5004   -6.0676   -1.0680 C.ar      1 <0>         0.1853
     16 N2          0.3972   -6.4042   -2.0826 N.am      1 <0>        -0.6606
     17 C15         1.6630   -5.9681   -2.1096 C.2       1 <0>         0.7125
     18 O1          2.3747   -6.3115   -3.0337 O.2       1 <0>        -0.5671
     19 N3          2.1841   -5.1679   -1.1620 N.am      1 <0>        -0.7054
     20 Cl1        -3.3662   -4.9544    2.2281 Cl        1 <0>        -0.0583
     21 C16         2.0068   -5.1995    1.2603 C.3       1 <0>        -0.1716
     22 C17         2.1819   -4.1610    2.3701 C.3       1 <0>        -0.1670
     23 C18         3.3963   -4.6402    1.5722 C.3       1 <0>        -0.1655
     24 H1         -0.9523    1.9185    0.0259 H         1 <0>         0.1431
     25 H2          1.2125    3.1386    0.0070 H         1 <0>         0.1421
     26 H3          3.3183    1.8671   -0.0200 H         1 <0>         0.1643
     27 H4         -0.9212   -0.5644    0.0082 H         1 <0>         0.1402
     28 H5         -0.6330   -4.2626    1.7891 H         1 <0>         0.1443
     29 H6         -3.6910   -6.5744   -0.0893 H         1 <0>         0.1446
     30 H7         -2.1335   -7.1862   -1.8920 H         1 <0>         0.1451
     31 H8          0.0901   -6.9796   -2.8006 H         1 <0>         0.4284
     32 H9          3.1070   -4.8750   -1.2198 H         1 <0>         0.4328
     33 H10         1.7988   -6.2267    1.5600 H         1 <0>         0.1231
     34 H11         1.8190   -3.1516    2.1767 H         1 <0>         0.1014
     35 H12         2.0890   -4.5049    3.4003 H         1 <0>         0.1035
     36 H13         4.1023   -5.2993    2.0775 H         1 <0>         0.1040
     37 H14         3.8323   -3.9460    0.8539 H         1 <0>         0.0974
@<TRIPOS>BOND
     1    1    6 ar
     2    1    2 ar
     3    1   24 1
     4    2    3 ar
     5    2   25 1
     6    3    4 ar
     7    3   26 1
     8    4    5 ar
     9    5    6 ar
    10    5    7 1
    11    6   27 1
    12    7    8 3
    13    8    9 1
    14    9   19 1
    15    9   10 1
    16    9   21 1
    17   10   15 ar
    18   10   11 ar
    19   11   12 ar
    20   11   28 1
    21   12   13 ar
    22   12   20 1
    23   13   14 ar
    24   13   29 1
    25   14   15 ar
    26   14   30 1
    27   15   16 1
    28   16   17 am
    29   16   31 1
    30   17   18 2
    31   17   19 am
    32   19   32 1
    33   21   23 1
    34   21   22 1
    35   21   33 1
    36   22   23 1
    37   22   34 1
    38   22   35 1
    39   23   36 1
    40   23   37 1
@<TRIPOS>MOLECULE
CHEMBL106997
   40    42     0     0     0
SMALL
USER_CHARGES

@<TRIPOS>ATOM
      1 C1         -0.0083    1.2987    0.0440 C.ar      1 <0>        -0.1739
      2 C2          1.1810    2.0115    0.0254 C.ar      1 <0>        -0.0513
      3 C3          2.3736    1.3049    0.0112 C.ar      1 <0>        -0.1441
      4 C4          2.3378   -0.0769    0.0161 C.ar      1 <0>         0.1236
      5 N1          1.1879   -0.7217    0.0335 N.ar      1 <0>        -0.4855
      6 C5          0.0344   -0.0825    0.0478 C.ar      1 <0>         0.1068
      7 C6          3.6923    2.0341   -0.0097 C.3       1 <0>         0.0783
      8 O1          4.1279    2.2692    1.3308 O.3       1 <0>        -0.3390
      9 C7          5.4390    2.8295    1.4261 C.3       1 <0>         0.2945
     10 C8          6.3890    1.9840    0.6849 C.1       1 <0>        -0.2267
     11 C9          7.1466    1.3096    0.0937 C.1       1 <0>        -0.0625
     12 C10         8.0966    0.4640   -0.6475 C.3       1 <0>        -0.0651
     13 C11         9.1344   -0.3125    0.1655 C.3       1 <0>        -0.1585
     14 C12         9.5636    0.8983   -0.6656 C.3       1 <0>        -0.1593
     15 C13         5.8518    2.8987    2.8738 C.2       1 <0>        -0.2415
     16 C14         5.0090    2.4599    3.8524 C.2       1 <0>         0.0463
     17 C15         5.4163    2.5344    5.1918 C.2       1 <0>        -0.2401
     18 C16         6.6342    3.0377    5.5007 C.2       1 <0>         0.1544
     19 N2          7.4715    3.4744    4.5253 N.am      1 <0>        -0.6048
     20 C17         7.1114    3.4106    3.2293 C.2       1 <0>         0.5233
     21 O2          7.8773    3.8020    2.3633 O.2       1 <0>        -0.5194
     22 C18         5.4363    4.2380    0.8286 C.3       1 <0>         0.4326
     23 F1          4.6128    5.0686    1.5962 F         1 <0>        -0.1724
     24 F2          6.7397    4.7464    0.8271 F         1 <0>        -0.1444
     25 F3          4.9541    4.1871   -0.4836 F         1 <0>        -0.1795
     26 H1         -0.9560    1.8165    0.0599 H         1 <0>         0.1396
     27 H2          1.1782    3.0915    0.0217 H         1 <0>         0.1374
     28 H3          3.2625   -0.6347    0.0051 H         1 <0>         0.1553
     29 H4         -0.8874   -0.6450    0.0626 H         1 <0>         0.1590
     30 H5          4.4336    1.4292   -0.5318 H         1 <0>         0.0762
     31 H6          3.5725    2.9869   -0.5252 H         1 <0>         0.0919
     32 H7          7.7014   -0.0116   -1.5450 H         1 <0>         0.1336
     33 H8          9.1137   -0.1972    1.2492 H         1 <0>         0.1020
     34 H9          9.4220   -1.2993   -0.1971 H         1 <0>         0.1073
     35 H10        10.1336    0.7080   -1.5750 H         1 <0>         0.1083
     36 H11         9.8253    1.8101   -0.1287 H         1 <0>         0.1002
     37 H12         4.0385    2.0599    3.5983 H         1 <0>         0.1496
     38 H13         4.7587    2.1908    5.9766 H         1 <0>         0.1547
     39 H14         6.9430    3.0928    6.5341 H         1 <0>         0.1719
     40 H15         8.3405    3.8328    4.7644 H         1 <0>         0.4213
@<TRIPOS>BOND
     1    1    6 ar
     2    1    2 ar
     3    1   26 1
     4    2    3 ar
     5    2   27 1
     6    3    4 ar
     7    3    7 1
     8    4    5 ar
     9    4   28 1
    10    5    6 ar
    11    6   29 1
    12    7    8 1
    13    7   30 1
    14    7   31 1
    15    8    9 1
    16    9   10 1
    17    9   22 1
    18    9   15 1
    19   10   11 3
    20   11   12 1
    21   12   14 1
    22   12   13 1
    23   12   32 1
    24   13   14 1
    25   13   33 1
    26   13   34 1
    27   14   35 1
    28   14   36 1
    29   15   16 2
    30   15   20 1
    31   16   17 1
    32   16   37 1
    33   17   18 2
    34   17   38 1
    35   18   19 1
    36   18   39 1
    37   19   20 am
    38   19   40 1
    39   20   21 2
    40   22   23 1
    41   22   24 1
    42   22   25 1
@<TRIPOS>MOLECULE
CHEMBL106997__1
   40    42     0     0     0
SMALL
USER_CHARGES

@<TRIPOS>ATOM
      1 C1         -0.1642    2.2093    0.1854 C.ar      1 <0>        -0.1748
      2 C2          1.1332    2.6987    0.1744 C.ar      1 <0>        -0.0511
      3 C3          2.1757    1.8008    0.0046 C.ar      1 <0>        -0.1445
      4 C4          1.8893    0.4571   -0.1470 C.ar      1 <0>         0.1248
      5 N1          0.6429    0.0272   -0.1318 N.ar      1 <0>        -0.4844
      6 C5         -0.3734    0.8525    0.0279 C.ar      1 <0>         0.1075
      7 C6          3.6031    2.2837   -0.0150 C.3       1 <0>         0.0861
      8 O1          4.1288    2.2703    1.3137 O.3       1 <0>        -0.3384
      9 C7          5.4390    2.8295    1.4261 C.3       1 <0>         0.2939
     10 C8          5.4434    4.1872    0.8575 C.1       1 <0>        -0.2250
     11 C9          5.4470    5.2701    0.4040 C.1       1 <0>        -0.0646
     12 C10         5.4514    6.6278   -0.1646 C.3       1 <0>        -0.0648
     13 C11         6.2340    6.8484   -1.4607 C.3       1 <0>        -0.1601
     14 C12         6.7719    7.4002   -0.1390 C.3       1 <0>        -0.1580
     15 C13         5.8357    2.8919    2.8786 C.2       1 <0>        -0.2424
     16 C14         4.9818    2.4491    3.8458 C.2       1 <0>         0.0461
     17 C15         5.3743    2.5173    5.1900 C.2       1 <0>        -0.2407
     18 C16         6.5889    3.0186    5.5147 C.2       1 <0>         0.1548
     19 N2          7.4372    3.4592    4.5506 N.am      1 <0>        -0.6049
     20 C17         7.0915    3.4016    3.2504 C.2       1 <0>         0.5231
     21 O2          7.8672    3.7965    2.3948 O.2       1 <0>        -0.5172
     22 C18         6.4345    1.9537    0.6627 C.3       1 <0>         0.4303
     23 F1          6.1281    1.9801   -0.7020 F         1 <0>        -0.1806
     24 F2          7.7310    2.4414    0.8591 F         1 <0>        -0.1425
     25 F3          6.3549    0.6385    1.1331 F         1 <0>        -0.1721
     26 H1         -1.0003    2.8795    0.3199 H         1 <0>         0.1390
     27 H2          1.3269    3.7543    0.2948 H         1 <0>         0.1354
     28 H3          2.6958   -0.2489   -0.2798 H         1 <0>         0.1578
     29 H4         -1.3808    0.4633    0.0357 H         1 <0>         0.1592
     30 H5          4.2000    1.6275   -0.6485 H         1 <0>         0.0838
     31 H6          3.6377    3.2993   -0.4093 H         1 <0>         0.0758
     32 H7          4.5323    7.1977   -0.0281 H         1 <0>         0.1327
     33 H8          6.7455    5.9881   -1.8924 H         1 <0>         0.1001
     34 H9          5.8297    7.5634   -2.1773 H         1 <0>         0.1083
     35 H10         6.7215    8.4782    0.0140 H         1 <0>         0.1076
     36 H11         7.6374    6.9029    0.2989 H         1 <0>         0.1024
     37 H12         4.0141    2.0507    3.5791 H         1 <0>         0.1496
     38 H13         4.7078    2.1705    5.9658 H         1 <0>         0.1546
     39 H14         6.8862    3.0689    6.5517 H         1 <0>         0.1719
     40 H15         8.3037    3.8161    4.8010 H         1 <0>         0.4213
@<TRIPOS>BOND
     1    1    6 ar
     2    1    2 ar
     3    1   26 1
     4    2    3 ar
     5    2   27 1
     6    3    4 ar
     7    3    7 1
     8    4    5 ar
     9    4   28 1
    10    5    6 ar
    11    6   29 1
    12    7    8 1
    13    7   30 1
    14    7   31 1
    15    8    9 1
    16    9   10 1
    17    9   22 1
    18    9   15 1
    19   10   11 3
    20   11   12 1
    21   12   14 1
    22   12   13 1
    23   12   32 1
    24   13   14 1
    25   13   33 1
    26   13   34 1
    27   14   35 1
    28   14   36 1
    29   15   16 2
    30   15   20 1
    31   16   17 1
    32   16   37 1
    33   17   18 2
    34   17   38 1
    35   18   19 1
    36   18   39 1
    37   19   20 am
    38   19   40 1
    39   20   21 2
    40   22   23 1
    41   22   24 1
    42   22   25 1
@<TRIPOS>MOLECULE
CHEMBL357411
   49    52     0     0     0
SMALL
USER_CHARGES

@<TRIPOS>ATOM
      1 C1         -0.0678    1.4731   -0.0224 C.3       1 <0>        -0.1754
      2 C2         -0.0271   -0.0562   -0.0409 C.3       1 <0>         0.1223
      3 N1          0.6820   -0.5114   -1.2393 N.pl3     1 <0>        -0.5849
      4 C3         -0.0093   -0.7436   -2.4163 C.ar      1 <0>         0.3836
      5 C4          0.3289   -0.0280   -3.5765 C.ar      1 <0>        -0.1894
      6 C5         -0.3257   -0.3380   -4.7737 C.ar      1 <0>         0.0026
      7 C6         -1.3121   -1.3091   -4.7528 C.ar      1 <0>        -0.1674
      8 C7         -1.6214   -1.9386   -3.5611 C.ar      1 <0>         0.1551
      9 N2         -0.9769   -1.6474   -2.4478 N.ar      1 <0>        -0.4938
     10 C8          1.3162    1.0543   -3.5388 C.2       1 <0>         0.5727
     11 O1          1.0860    2.0382   -4.2149 O.2       1 <0>        -0.4929
     12 N3          2.4374    1.0557   -2.8328 N.am      1 <0>        -0.5388
     13 C9          2.9129    0.0255   -2.0185 C.ar      1 <0>         0.1026
     14 C10         2.0617   -0.7102   -1.2095 C.ar      1 <0>         0.3983
     15 N4          2.5547   -1.6357   -0.3946 N.ar      1 <0>        -0.5124
     16 C11         3.8484   -1.9126   -0.3521 C.ar      1 <0>         0.4580
     17 C12         4.7456   -1.2374   -1.1686 C.ar      1 <0>        -0.1812
     18 C13         4.2754   -0.2601   -2.0114 C.ar      1 <0>         0.0254
     19 N5          4.3147   -2.8914    0.5215 N.pl3     1 <0>        -0.5808
     20 C14         5.7236   -3.3075    0.4965 C.3       1 <0>         0.1074
     21 C15         6.3000   -3.1819    1.9102 C.3       1 <0>        -0.1404
     22 C16         5.4274   -3.9759    2.8850 C.3       1 <0>        -0.1280
     23 C17         4.0096   -3.3998    2.8886 C.3       1 <0>        -0.1373
     24 C18         3.4085   -3.5236    1.4900 C.3       1 <0>         0.0963
     25 C19         3.2641    2.2624   -2.9153 C.3       1 <0>         0.0518
     26 H1          0.9498    1.8636   -0.0127 H         1 <0>         0.0589
     27 H2         -0.5868    1.8335   -0.9105 H         1 <0>         0.0655
     28 H3         -0.5954    1.8117    0.8693 H         1 <0>         0.0854
     29 H4          0.4920   -0.4167    0.8472 H         1 <0>         0.0775
     30 H5         -1.0447   -0.4467   -0.0506 H         1 <0>         0.1057
     31 H6         -0.0677    0.1684   -5.6921 H         1 <0>         0.1579
     32 H7         -1.8360   -1.5727   -5.6597 H         1 <0>         0.1597
     33 H8         -2.4049   -2.6816   -3.5414 H         1 <0>         0.1780
     34 H9          5.7978   -1.4795   -1.1428 H         1 <0>         0.1908
     35 H10         4.9549    0.2812   -2.6530 H         1 <0>         0.1836
     36 H11         5.7928   -4.3434    0.1644 H         1 <0>         0.0984
     37 H12         6.2822   -2.6652   -0.1843 H         1 <0>         0.1021
     38 H13         7.3155   -3.5778    1.9256 H         1 <0>         0.0959
     39 H14         6.3136   -2.1328    2.2057 H         1 <0>         0.0757
     40 H15         5.3943   -5.0203    2.5748 H         1 <0>         0.0743
     41 H16         5.8493   -3.9083    3.8878 H         1 <0>         0.0821
     42 H17         3.3948   -3.9508    3.6003 H         1 <0>         0.0947
     43 H18         4.0447   -2.3486    3.1748 H         1 <0>         0.0743
     44 H19         2.4402   -3.0238    1.4646 H         1 <0>         0.0740
     45 H20         3.2848   -4.5774    1.2408 H         1 <0>         0.1018
     46 H21         2.7870    2.9851   -3.5773 H         1 <0>         0.1166
     47 H22         3.3730    2.6968   -1.9215 H         1 <0>         0.0782
     48 H23         4.2471    2.0032   -3.3083 H         1 <0>         0.0795
     49 H24         1.9494   -2.1225    0.1865 H         1 <0>         0.4356
@<TRIPOS>BOND
     1    1    2 1
     2    1   26 1
     3    1   27 1
     4    1   28 1
     5    2    3 1
     6    2   29 1
     7    2   30 1
     8    3   14 1
     9    3    4 1
    10    4    9 ar
    11    4    5 ar
    12    5    6 ar
    13    5   10 1
    14    6    7 ar
    15    6   31 1
    16    7    8 ar
    17    7   32 1
    18    8    9 ar
    19    8   33 1
    20   10   11 2
    21   10   12 am
    22   12   13 1
    23   12   25 1
    24   13   18 ar
    25   13   14 ar
    26   14   15 ar
    27   15   16 ar
    28   15   49 1
    29   16   17 ar
    30   16   19 1
    31   17   18 ar
    32   17   34 1
    33   18   35 1
    34   19   24 1
    35   19   20 1
    36   20   21 1
    37   20   36 1
    38   20   37 1
    39   21   22 1
    40   21   38 1
    41   21   39 1
    42   22   23 1
    43   22   40 1
    44   22   41 1
    45   23   24 1
    46   23   42 1
    47   23   43 1
    48   24   44 1
    49   24   45 1
    50   25   46 1
    51   25   47 1
    52   25   48 1
@<TRIPOS>MOLECULE
CHEMBL357411__1
   48    51     0     0     0
SMALL
USER_CHARGES

@<TRIPOS>ATOM
      1 C1         -0.0977    1.0312    0.5311 C.3       1 <0>        -0.1708
      2 C2         -0.2408   -0.4866    0.4015 C.3       1 <0>         0.1392
      3 N1         -1.6507   -0.8284    0.1974 N.pl3     1 <0>        -0.5790
      4 C3         -2.4761   -1.0730    1.2819 C.ar      1 <0>         0.4163
      5 C4         -3.6211   -0.2839    1.4787 C.ar      1 <0>        -0.1967
      6 C5         -4.4851   -0.6019    2.5324 C.ar      1 <0>        -0.0029
      7 C6         -4.1494   -1.6564    3.3642 C.ar      1 <0>        -0.1926
      8 C7         -2.9805   -2.3584    3.1340 C.ar      1 <0>         0.1480
      9 N2         -2.1910   -2.0567    2.1215 N.ar      1 <0>        -0.5011
     10 C8         -3.8954    0.8790    0.6301 C.2       1 <0>         0.5739
     11 O1         -4.3544    1.8653    1.1732 O.2       1 <0>        -0.5334
     12 N3         -3.6871    0.9509   -0.6764 N.am      1 <0>        -0.5307
     13 C9         -3.2008   -0.0653   -1.5017 C.ar      1 <0>         0.0248
     14 C10        -2.1783   -0.9055   -1.0908 C.ar      1 <0>         0.4140
     15 N4         -1.6907   -1.8160   -1.9257 N.ar      1 <0>        -0.5371
     16 C11        -2.1789   -1.9793   -3.1452 C.ar      1 <0>         0.4234
     17 C12        -3.2307   -1.1950   -3.5991 C.ar      1 <0>        -0.2230
     18 C13        -3.7488   -0.2295   -2.7709 C.ar      1 <0>        -0.0352
     19 N5         -1.6312   -2.9479   -3.9821 N.pl3     1 <0>        -0.6050
     20 C14        -0.3809   -3.6296   -3.6203 C.3       1 <0>         0.1235
     21 C15        -0.6124   -5.1431   -3.6699 C.3       1 <0>        -0.1359
     22 C16        -1.1618   -5.5263   -5.0460 C.3       1 <0>        -0.1206
     23 C17        -2.5025   -4.8249   -5.2752 C.3       1 <0>        -0.1374
     24 C18        -2.2957   -3.3121   -5.2409 C.3       1 <0>         0.1230
     25 C19        -3.9997    2.2283   -1.3220 C.3       1 <0>         0.0612
     26 H1          0.9513    1.2855    0.6830 H         1 <0>         0.0710
     27 H2         -0.4594    1.5094   -0.3791 H         1 <0>         0.0548
     28 H3         -0.6829    1.3800    1.3820 H         1 <0>         0.0540
     29 H4          0.3444   -0.8353   -0.4494 H         1 <0>         0.0818
     30 H5          0.1209   -0.9647    1.3118 H         1 <0>         0.0822
     31 H6         -5.3920   -0.0379    2.6932 H         1 <0>         0.1473
     32 H7         -4.7949   -1.9283    4.1862 H         1 <0>         0.1477
     33 H8         -2.7091   -3.1680    3.7953 H         1 <0>         0.1665
     34 H9         -3.6370   -1.3442   -4.5886 H         1 <0>         0.1433
     35 H10        -4.5644    0.3954   -3.1036 H         1 <0>         0.1442
     36 H11         0.4021   -3.3563   -4.3276 H         1 <0>         0.0614
     37 H12        -0.0842   -3.3382   -2.6128 H         1 <0>         0.0954
     38 H13         0.3310   -5.6613   -3.4977 H         1 <0>         0.0738
     39 H14        -1.3297   -5.4269   -2.8999 H         1 <0>         0.0654
     40 H15        -0.4551   -5.2200   -5.8173 H         1 <0>         0.0644
     41 H16        -1.3042   -6.6060   -5.0924 H         1 <0>         0.0652
     42 H17        -2.9044   -5.1165   -6.2456 H         1 <0>         0.0771
     43 H18        -3.2021   -5.1117   -4.4901 H         1 <0>         0.0664
     44 H19        -3.2619   -2.8113   -5.3023 H         1 <0>         0.0844
     45 H20        -1.6723   -3.0124   -6.0832 H         1 <0>         0.0693
     46 H21        -4.3679    2.9322   -0.5756 H         1 <0>         0.1033
     47 H22        -3.0996    2.6300   -1.7874 H         1 <0>         0.0675
     48 H23        -4.7641    2.0732   -2.0834 H         1 <0>         0.0678
@<TRIPOS>BOND
     1    1    2 1
     2    1   26 1
     3    1   27 1
     4    1   28 1
     5    2    3 1
     6    2   29 1
     7    2   30 1
     8    3   14 1
     9    3    4 1
    10    4    9 ar
    11    4    5 ar
    12    5    6 ar
    13    5   10 1
    14    6    7 ar
    15    6   31 1
    16    7    8 ar
    17    7   32 1
    18    8    9 ar
    19    8   33 1
    20   10   11 2
    21   10   12 am
    22   12   13 1
    23   12   25 1
    24   13   18 ar
    25   13   14 ar
    26   14   15 ar
    27   15   16 ar
    28   16   17 ar
    29   16   19 1
    30   17   18 ar
    31   17   34 1
    32   18   35 1
    33   19   24 1
    34   19   20 1
    35   20   21 1
    36   20   36 1
    37   20   37 1
    38   21   22 1
    39   21   38 1
    40   21   39 1
    41   22   23 1
    42   22   40 1
    43   22   41 1
    44   23   24 1
    45   23   42 1
    46   23   43 1
    47   24   44 1
    48   24   45 1
    49   25   46 1
    50   25   47 1
    51   25   48 1
@<TRIPOS>MOLECULE
CHEMBL78882
   35    38     0     0     0
SMALL
USER_CHARGES

@<TRIPOS>ATOM
      1 C1         -0.0162    1.3437    0.0094 C.2       1 <0>        -0.2146
      2 C2          1.3243    1.7753   -0.0011 C.2       1 <0>        -0.1573
      3 C3          2.0972    0.6536   -0.0145 C.2       1 <0>         0.0749
      4 O1          1.2797   -0.4177   -0.0124 O.3       1 <0>        -0.1652
      5 C4          0.0021   -0.0041    0.0020 C.2       1 <0>        -0.0154
      6 C5          3.5287    0.6189   -0.0283 C.1       1 <0>        -0.0720
      7 C6          4.7023    0.5905   -0.0397 C.1       1 <0>        -0.1406
      8 C7          6.1738    0.5548   -0.0539 C.3       1 <0>         0.3686
      9 C8          6.6048   -0.8936   -0.0658 C.ar      1 <0>        -0.1181
     10 C9          6.2047   -1.7505   -1.0651 C.ar      1 <0>        -0.0470
     11 C10         6.6200   -3.0722   -1.0436 C.ar      1 <0>        -0.0618
     12 C11         7.4334   -3.5257   -0.0197 C.ar      1 <0>        -0.0610
     13 C12         7.8353   -2.6666    0.9843 C.ar      1 <0>        -0.1439
     14 C13         7.4224   -1.3410    0.9663 C.ar      1 <0>         0.1856
     15 N1          7.8188   -0.4574    1.9714 N.am      1 <0>        -0.6594
     16 C14         7.4476    0.8290    1.9987 C.2       1 <0>         0.7139
     17 O2          7.8415    1.5266    2.9133 O.2       1 <0>        -0.5661
     18 N2          6.6591    1.3854    1.0614 N.am      1 <0>        -0.7097
     19 Cl1         6.1196   -4.1597   -2.3008 Cl        1 <0>        -0.0572
     20 C15         6.6446    1.1972   -1.3603 C.3       1 <0>        -0.1734
     21 C16         7.6952    2.3053   -1.2641 C.3       1 <0>        -0.1627
     22 C17         6.2471    2.6525   -1.6153 C.3       1 <0>        -0.1684
     23 H1         -0.8933    1.9737    0.0252 H         1 <0>         0.1577
     24 H2          1.6722    2.7977    0.0006 H         1 <0>         0.1552
     25 H3         -0.8670   -0.6453    0.0074 H         1 <0>         0.2121
     26 H4          5.5695   -1.3945   -1.8627 H         1 <0>         0.1442
     27 H5          7.7551   -4.5566   -0.0056 H         1 <0>         0.1452
     28 H6          8.4695   -3.0250    1.7816 H         1 <0>         0.1455
     29 H7          8.3892   -0.7900    2.6821 H         1 <0>         0.4290
     30 H8          6.4135    2.3220    1.1192 H         1 <0>         0.4320
     31 H9          6.6931    0.5305   -2.2212 H         1 <0>         0.1255
     32 H10         8.0510    2.5767   -0.2702 H         1 <0>         0.1016
     33 H11         8.4353    2.3677   -2.0619 H         1 <0>         0.1032
     34 H12         6.0345    2.9433   -2.6440 H         1 <0>         0.1045
     35 H13         5.6502    3.1523   -0.8524 H         1 <0>         0.0952
@<TRIPOS>BOND
     1    1    5 2
     2    1    2 1
     3    1   23 1
     4    2    3 2
     5    2   24 1
     6    3    4 1
     7    3    6 1
     8    4    5 1
     9    5   25 1
    10    6    7 3
    11    7    8 1
    12    8   18 1
    13    8    9 1
    14    8   20 1
    15    9   14 ar
    16    9   10 ar
    17   10   11 ar
    18   10   26 1
    19   11   12 ar
    20   11   19 1
    21   12   13 ar
    22   12   27 1
    23   13   14 ar
    24   13   28 1
    25   14   15 1
    26   15   16 am
    27   15   29 1
    28   16   17 2
    29   16   18 am
    30   18   30 1
    31   20   22 1
    32   20   21 1
    33   20   31 1
    34   21   22 1
    35   21   32 1
    36   21   33 1
    37   22   34 1
    38   22   35 1
@<TRIPOS>MOLECULE
CHEMBL78882__1
   35    38     0     0     0
SMALL
USER_CHARGES

@<TRIPOS>ATOM
      1 C1         -0.0162    1.3437    0.0094 C.2       1 <0>        -0.2139
      2 C2          1.3243    1.7753   -0.0011 C.2       1 <0>        -0.1584
      3 C3          2.0972    0.6536   -0.0145 C.2       1 <0>         0.0745
      4 O1          1.2797   -0.4177   -0.0124 O.3       1 <0>        -0.1659
      5 C4          0.0021   -0.0041    0.0020 C.2       1 <0>        -0.0161
      6 C5          3.5287    0.6189   -0.0283 C.1       1 <0>        -0.0737
      7 C6          4.7023    0.5905   -0.0397 C.1       1 <0>        -0.1398
      8 C7          6.1738    0.5548   -0.0539 C.3       1 <0>         0.3675
      9 C8          6.6048   -0.8936   -0.0658 C.ar      1 <0>        -0.1208
     10 C9          6.2230   -1.7614    0.9312 C.ar      1 <0>        -0.0421
     11 C10         6.6370   -3.0830    0.8871 C.ar      1 <0>        -0.0633
     12 C11         7.4314   -3.5251   -0.1564 C.ar      1 <0>        -0.0605
     13 C12         7.8150   -2.6550   -1.1581 C.ar      1 <0>        -0.1450
     14 C13         7.4025   -1.3298   -1.1180 C.ar      1 <0>         0.1853
     15 N1          7.7798   -0.4354   -2.1211 N.am      1 <0>        -0.6603
     16 C14         7.4074    0.8509   -2.1279 C.2       1 <0>         0.7131
     17 O2          7.7826    1.5580   -3.0431 O.2       1 <0>        -0.5662
     18 N2          6.6378    1.3974   -1.1693 N.am      1 <0>        -0.7057
     19 Cl1         6.1596   -4.1843    2.1413 Cl        1 <0>        -0.0575
     20 C15         6.6695    1.1832    1.2500 C.3       1 <0>        -0.1719
     21 C16         5.6452    1.3938    2.3669 C.3       1 <0>        -0.1675
     22 C17         6.1815    2.5942    1.5845 C.3       1 <0>        -0.1667
     23 H1         -0.8933    1.9737    0.0252 H         1 <0>         0.1580
     24 H2          1.6722    2.7977    0.0006 H         1 <0>         0.1566
     25 H3         -0.8670   -0.6453    0.0074 H         1 <0>         0.2119
     26 H4          5.6037   -1.4139    1.7449 H         1 <0>         0.1445
     27 H5          7.7528   -4.5558   -0.1877 H         1 <0>         0.1451
     28 H6          8.4350   -3.0045   -1.9705 H         1 <0>         0.1455
     29 H7          8.3364   -0.7603   -2.8460 H         1 <0>         0.4288
     30 H8          6.3912    2.3345   -1.2124 H         1 <0>         0.4326
     31 H9          7.6861    0.9198    1.5421 H         1 <0>         0.1243
     32 H10         4.6182    1.0846    2.1727 H         1 <0>         0.1017
     33 H11         5.9877    1.2688    3.3941 H         1 <0>         0.1050
     34 H12         6.8769    3.2590    2.0970 H         1 <0>         0.1051
     35 H13         5.5073    3.0748    0.8756 H         1 <0>         0.0955
@<TRIPOS>BOND
     1    1    5 2
     2    1    2 1
     3    1   23 1
     4    2    3 2
     5    2   24 1
     6    3    4 1
     7    3    6 1
     8    4    5 1
     9    5   25 1
    10    6    7 3
    11    7    8 1
    12    8   18 1
    13    8    9 1
    14    8   20 1
    15    9   14 ar
    16    9   10 ar
    17   10   11 ar
    18   10   26 1
    19   11   12 ar
    20   11   19 1
    21   12   13 ar
    22   12   27 1
    23   13   14 ar
    24   13   28 1
    25   14   15 1
    26   15   16 am
    27   15   29 1
    28   16   17 2
    29   16   18 am
    30   18   30 1
    31   20   22 1
    32   20   21 1
    33   20   31 1
    34   21   22 1
    35   21   32 1
    36   21   33 1
    37   22   34 1
    38   22   35 1
@<TRIPOS>MOLECULE
CHEMBL144652
   40    43     0     0     0
SMALL
USER_CHARGES

@<TRIPOS>ATOM
      1 C1         -0.0187    1.5258    0.0104 C.3       1 <0>        -0.1713
      2 C2          0.0021   -0.0041    0.0020 C.3       1 <0>         0.1370
      3 N1          0.7106   -0.4894    1.1889 N.pl3     1 <0>        -0.5776
      4 C3          2.0787   -0.6987    1.1511 C.ar      1 <0>         0.4159
      5 C4          2.9156   -0.0006    2.0370 C.ar      1 <0>        -0.2017
      6 C5          4.2849   -0.2890    2.0384 C.ar      1 <0>        -0.0008
      7 C6          4.7626   -1.2209    1.1330 C.ar      1 <0>        -0.1912
      8 C7          3.8827   -1.8340    0.2601 C.ar      1 <0>         0.1510
      9 N2          2.5920   -1.5643    0.2901 N.ar      1 <0>        -0.4993
     10 C8          2.3844    1.0424    2.9186 C.2       1 <0>         0.5770
     11 O1          3.0711    2.0324    3.0819 O.2       1 <0>        -0.5231
     12 N3          1.2221    1.0028    3.5532 N.am      1 <0>        -0.5378
     13 C9          0.2978   -0.0395    3.5363 C.ar      1 <0>         0.0951
     14 C10         0.0162   -0.7404    2.3713 C.ar      1 <0>         0.3719
     15 N4         -0.9197   -1.6791    2.3713 N.ar      1 <0>        -0.4615
     16 C11        -1.5847   -2.0065    3.4747 C.ar      1 <0>         0.2181
     17 C12        -1.3151   -1.3655    4.6828 C.ar      1 <0>        -0.1359
     18 C13        -0.3665   -0.3761    4.7135 C.ar      1 <0>        -0.0767
     19 C14        -2.6182   -3.0594    3.4202 C.2       1 <0>         0.0082
     20 C15        -2.9786   -3.7681    2.3164 C.2       1 <0>        -0.1430
     21 C16        -3.9930   -4.6586    2.7194 C.2       1 <0>        -0.2189
     22 C17        -4.2000   -4.4523    4.0351 C.2       1 <0>        -0.0172
     23 O2         -3.3642   -3.4895    4.4563 O.3       1 <0>        -0.1689
     24 C18         0.8727    2.1768    4.3568 C.3       1 <0>         0.0576
     25 H1          1.0039    1.9031    0.0027 H         1 <0>         0.0545
     26 H2         -0.5459    1.8868   -0.8726 H         1 <0>         0.0729
     27 H3         -0.5289    1.8773    0.9072 H         1 <0>         0.0542
     28 H4         -1.0205   -0.3814    0.0098 H         1 <0>         0.0839
     29 H5          0.5123   -0.3556   -0.8948 H         1 <0>         0.0849
     30 H6          4.9531    0.2040    2.7290 H         1 <0>         0.1485
     31 H7          5.8140   -1.4669    1.1085 H         1 <0>         0.1493
     32 H8          4.2590   -2.5463   -0.4592 H         1 <0>         0.1684
     33 H9         -1.8444   -1.6462    5.5814 H         1 <0>         0.1522
     34 H10        -0.1437    0.1375    5.6370 H         1 <0>         0.1519
     35 H11        -2.5669   -3.6673    1.3230 H         1 <0>         0.1573
     36 H12        -4.5078   -5.3716    2.0925 H         1 <0>         0.1548
     37 H13        -4.9164   -4.9773    4.6496 H         1 <0>         0.2103
     38 H14         1.6717    2.9151    4.2879 H         1 <0>         0.1071
     39 H15        -0.0552    2.6098    3.9832 H         1 <0>         0.0709
     40 H16         0.7418    1.8792    5.3972 H         1 <0>         0.0717
@<TRIPOS>BOND
     1    1    2 1
     2    1   25 1
     3    1   26 1
     4    1   27 1
     5    2    3 1
     6    2   28 1
     7    2   29 1
     8    3   14 1
     9    3    4 1
    10    4    9 ar
    11    4    5 ar
    12    5    6 ar
    13    5   10 1
    14    6    7 ar
    15    6   30 1
    16    7    8 ar
    17    7   31 1
    18    8    9 ar
    19    8   32 1
    20   10   11 2
    21   10   12 am
    22   12   13 1
    23   12   24 1
    24   13   18 ar
    25   13   14 ar
    26   14   15 ar
    27   15   16 ar
    28   16   17 ar
    29   16   19 1
    30   17   18 ar
    31   17   33 1
    32   18   34 1
    33   19   23 1
    34   19   20 2
    35   20   21 1
    36   20   35 1
    37   21   22 2
    38   21   36 1
    39   22   23 1
    40   22   37 1
    41   24   38 1
    42   24   39 1
    43   24   40 1
@<TRIPOS>MOLECULE
CHEMBL189423
   58    61     0     0     0
SMALL
USER_CHARGES

@<TRIPOS>ATOM
      1 C1         -0.0187    1.5258    0.0104 C.3       1 <0>        -0.1706
      2 C2          0.0021   -0.0041    0.0020 C.3       1 <0>         0.1385
      3 N1          0.7106   -0.4894    1.1889 N.pl3     1 <0>        -0.5789
      4 C3          2.0889   -0.7000    1.1501 C.ar      1 <0>         0.3682
      5 C4          2.9403    0.0079    1.9956 C.ar      1 <0>         0.0847
      6 C5          4.3023   -0.2733    1.9671 C.ar      1 <0>        -0.0817
      7 C6          4.7658   -1.2277    1.0724 C.ar      1 <0>        -0.1555
      8 C7          3.8679   -1.8660    0.2418 C.ar      1 <0>         0.1391
      9 N2          2.5785   -1.5922    0.3007 N.ar      1 <0>        -0.4750
     10 C8          4.3664   -2.8890   -0.7461 C.3       1 <0>        -0.1039
     11 N3          2.4738    1.0227    2.8272 N.am      1 <0>        -0.5372
     12 C9          1.3463    1.0251    3.5229 C.2       1 <0>         0.5761
     13 O1          1.1199    2.0020    4.2103 O.2       1 <0>        -0.5232
     14 C10         0.3479   -0.0485    3.5350 C.ar      1 <0>        -0.1961
     15 C11         0.0204   -0.7384    2.3628 C.ar      1 <0>         0.4107
     16 N4         -0.9437   -1.6475    2.3792 N.ar      1 <0>        -0.4957
     17 C12        -1.5843   -1.9625    3.4880 C.ar      1 <0>         0.1604
     18 C13        -1.2764   -1.3537    4.6909 C.ar      1 <0>        -0.1493
     19 C14        -0.3029   -0.3882    4.7261 C.ar      1 <0>         0.0035
     20 C15        -2.0003   -1.7516    5.9513 C.3       1 <0>        -0.0707
     21 C16        -1.2465   -2.8953    6.6329 C.3       1 <0>         0.0644
     22 O2         -1.9328   -3.2726    7.8282 O.3       1 <0>        -0.3141
     23 C17        -1.3917   -4.2808    8.5571 C.ar      1 <0>         0.1145
     24 C18        -0.2171   -4.8915    8.1307 C.ar      1 <0>        -0.2206
     25 C19         0.3351   -5.9148    8.8665 C.ar      1 <0>        -0.0526
     26 C20        -0.2867   -6.3404   10.0456 C.ar      1 <0>        -0.1630
     27 C21        -1.4677   -5.7229   10.4707 C.ar      1 <0>        -0.0488
     28 C22        -2.0100   -4.6966    9.7309 C.ar      1 <0>        -0.1362
     29 C23        -3.2789   -4.0264   10.1910 C.3       1 <0>        -0.0960
     30 C24         0.3001   -7.4352   10.8361 C.2       1 <0>         0.5219
     31 O3          1.3328   -7.9742   10.4624 O.co2     1 <0>        -0.6906
     32 O4         -0.2451   -7.8059   11.8666 O.co2     1 <0>        -0.6894
     33 C25         3.3193    2.2132    2.9457 C.3       1 <0>         0.0661
     34 H1          1.0039    1.9031    0.0027 H         1 <0>         0.0532
     35 H2         -0.5459    1.8868   -0.8726 H         1 <0>         0.0709
     36 H3         -0.5289    1.8773    0.9072 H         1 <0>         0.0543
     37 H4         -1.0205   -0.3814    0.0098 H         1 <0>         0.0832
     38 H5          0.5123   -0.3556   -0.8948 H         1 <0>         0.0826
     39 H6          4.9851    0.2408    2.6274 H         1 <0>         0.1476
     40 H7          5.8178   -1.4679    1.0265 H         1 <0>         0.1464
     41 H8          4.3621   -3.8750   -0.2815 H         1 <0>         0.0822
     42 H9          3.7160   -2.8966   -1.6207 H         1 <0>         0.0788
     43 H10         5.3818   -2.6353   -1.0506 H         1 <0>         0.0783
     44 H11        -2.3638   -2.7093    3.4560 H         1 <0>         0.1691
     45 H12        -0.0507    0.1035    5.6540 H         1 <0>         0.1489
     46 H13        -2.0514   -0.8971    6.6261 H         1 <0>         0.0898
     47 H14        -3.0097   -2.0791    5.7027 H         1 <0>         0.0923
     48 H15        -1.1954   -3.7498    5.9582 H         1 <0>         0.0623
     49 H16        -0.2370   -2.5679    6.8816 H         1 <0>         0.0598
     50 H17         0.2621   -4.5623    7.2206 H         1 <0>         0.1172
     51 H18         1.2469   -6.3889    8.5344 H         1 <0>         0.1275
     52 H19        -1.9512   -6.0485   11.3799 H         1 <0>         0.1331
     53 H20        -4.1385   -4.5470    9.7687 H         1 <0>         0.0606
     54 H21        -3.3331   -4.0590   11.2792 H         1 <0>         0.0611
     55 H22        -3.2831   -2.9886    9.8579 H         1 <0>         0.0628
     56 H23         3.0391    2.9356    2.1791 H         1 <0>         0.0661
     57 H24         3.1838    2.6584    3.9314 H         1 <0>         0.0934
     58 H25         4.3641    1.9313    2.8149 H         1 <0>         0.0791
@<TRIPOS>BOND
     1    1    2 1
     2    1   34 1
     3    1   35 1
     4    1   36 1
     5    2    3 1
     6    2   37 1
     7    2   38 1
     8    3   15 1
     9    3    4 1
    10    4    9 ar
    11    4    5 ar
    12    5    6 ar
    13    5   11 1
    14    6    7 ar
    15    6   39 1
    16    7    8 ar
    17    7   40 1
    18    8    9 ar
    19    8   10 1
    20   10   41 1
    21   10   42 1
    22   10   43 1
    23   11   12 am
    24   11   33 1
    25   12   13 2
    26   12   14 1
    27   14   19 ar
    28   14   15 ar
    29   15   16 ar
    30   16   17 ar
    31   17   18 ar
    32   17   44 1
    33   18   19 ar
    34   18   20 1
    35   19   45 1
    36   20   21 1
    37   20   46 1
    38   20   47 1
    39   21   22 1
    40   21   48 1
    41   21   49 1
    42   22   23 1
    43   23   28 ar
    44   23   24 ar
    45   24   25 ar
    46   24   50 1
    47   25   26 ar
    48   25   51 1
    49   26   27 ar
    50   26   30 1
    51   27   28 ar
    52   27   52 1
    53   28   29 1
    54   29   53 1
    55   29   54 1
    56   29   55 1
    57   30   31 2
    58   30   32 1
    59   33   56 1
    60   33   57 1
    61   33   58 1
@<TRIPOS>MOLECULE
CHEMBL308907
   30    32     0     0     0
SMALL
USER_CHARGES

@<TRIPOS>ATOM
      1 C1         -0.0187    1.5258    0.0104 C.3       1 <0>        -0.1722
      2 C2          0.0021   -0.0041    0.0020 C.3       1 <0>         0.1464
      3 N1          0.7106   -0.4894    1.1889 N.pl3     1 <0>        -0.5809
      4 C3          2.0871   -0.6987    1.1471 C.ar      1 <0>         0.3908
      5 C4          2.6164   -1.9752    1.3840 C.ar      1 <0>        -0.1198
      6 C5          4.0055   -2.1341    1.4116 C.ar      1 <0>        -0.0509
      7 C6          4.8025   -1.0266    1.1614 C.ar      1 <0>        -0.1834
      8 C7          4.2070    0.1892    0.8935 C.ar      1 <0>         0.1221
      9 N2          2.8923    0.3203    0.8936 N.ar      1 <0>        -0.4958
     10 C8          1.7490   -3.1433    1.5623 C.2       1 <0>        -0.0913
     11 C9          0.6096   -3.1690    2.2256 C.2       1 <0>        -0.0918
     12 C10        -0.0085   -2.0327    2.9167 C.ar      1 <0>        -0.1183
     13 C11         0.0136   -0.7390    2.3683 C.ar      1 <0>         0.3905
     14 N3         -0.6144    0.2573    2.9729 N.ar      1 <0>        -0.4951
     15 C12        -1.2383    0.0934    4.1257 C.ar      1 <0>         0.1199
     16 C13        -1.2631   -1.1345    4.7554 C.ar      1 <0>        -0.1834
     17 C14        -0.6438   -2.2316    4.1462 C.ar      1 <0>        -0.0512
     18 H1          1.0039    1.9031    0.0027 H         1 <0>         0.0670
     19 H2         -0.5459    1.8868   -0.8726 H         1 <0>         0.0552
     20 H3         -0.5289    1.8773    0.9072 H         1 <0>         0.0668
     21 H4         -1.0205   -0.3814    0.0098 H         1 <0>         0.0700
     22 H5          0.5123   -0.3556   -0.8948 H         1 <0>         0.0699
     23 H6          4.4475   -3.0966    1.6226 H         1 <0>         0.1406
     24 H7          5.8788   -1.1149    1.1764 H         1 <0>         0.1407
     25 H8          4.8261    1.0481    0.6803 H         1 <0>         0.1600
     26 H9          2.0727   -4.0682    1.1081 H         1 <0>         0.1258
     27 H10         0.0840   -4.1117    2.2630 H         1 <0>         0.1260
     28 H11        -1.7371    0.9348    4.5835 H         1 <0>         0.1600
     29 H12        -1.7579   -1.2487    5.7085 H         1 <0>         0.1407
     30 H13        -0.6504   -3.2052    4.6138 H         1 <0>         0.1417
@<TRIPOS>BOND
     1    1    2 1
     2    1   18 1
     3    1   19 1
     4    1   20 1
     5    2    3 1
     6    2   21 1
     7    2   22 1
     8    3   13 1
     9    3    4 1
    10    4    9 ar
    11    4    5 ar
    12    5    6 ar
    13    5   10 1
    14    6    7 ar
    15    6   23 1
    16    7    8 ar
    17    7   24 1
    18    8    9 ar
    19    8   25 1
    20   10   11 2
    21   10   26 1
    22   11   12 1
    23   11   27 1
    24   12   17 ar
    25   12   13 ar
    26   13   14 ar
    27   14   15 ar
    28   15   16 ar
    29   15   28 1
    30   16   17 ar
    31   16   29 1
    32   17   30 1
@<TRIPOS>MOLECULE
CHEMBL124557
   42    44     0     0     0
SMALL
USER_CHARGES

@<TRIPOS>ATOM
      1 C1         -0.0187    1.5258    0.0104 C.3       1 <0>        -0.1491
      2 C2          0.0021   -0.0041    0.0020 C.3       1 <0>        -0.0871
      3 C3         -1.4117   -0.5257    0.0127 C.ar      1 <0>        -0.0528
      4 C4         -2.0237   -0.8674    1.2120 C.ar      1 <0>        -0.1599
      5 C5         -3.3268   -1.3439    1.1772 C.ar      1 <0>         0.2164
      6 C6         -3.9719   -1.4617   -0.0576 C.ar      1 <0>         0.0274
      7 N1         -3.3496   -1.1241   -1.1752 N.ar      1 <0>        -0.4018
      8 C7         -2.1121   -0.6629   -1.1681 C.ar      1 <0>         0.0661
      9 C8         -1.4526   -0.2870   -2.4699 C.3       1 <0>        -0.1001
     10 S1         -5.6261   -2.0648   -0.1258 S.3       1 <0>        -0.0858
     11 N2         -3.9848   -1.7015    2.3599 N.pl3     1 <0>        -0.7262
     12 C9         -3.2979   -1.5740    3.6476 C.3       1 <0>         0.1616
     13 C10        -4.2182   -2.0207    4.7542 C.ar      1 <0>        -0.1073
     14 C11        -5.0589   -1.0918    5.3649 C.ar      1 <0>        -0.1018
     15 C12        -5.9016   -1.4620    6.3673 C.ar      1 <0>        -0.1045
     16 C13        -5.9274   -2.8004    6.7952 C.ar      1 <0>        -0.0455
     17 C14        -6.7844   -3.2205    7.8268 C.ar      1 <0>        -0.1092
     18 C15        -6.7824   -4.5250    8.2146 C.ar      1 <0>        -0.1108
     19 C16        -5.9420   -5.4540    7.6037 C.ar      1 <0>        -0.1157
     20 C17        -5.0989   -5.0835    6.6017 C.ar      1 <0>        -0.1030
     21 C18        -5.0729   -3.7450    6.1740 C.ar      1 <0>        -0.0552
     22 C19        -4.2199   -3.3262    5.1386 C.ar      1 <0>        -0.0773
     23 H1          1.0039    1.9031    0.0027 H         1 <0>         0.0638
     24 H2         -0.5459    1.8868   -0.8726 H         1 <0>         0.0596
     25 H3         -0.5289    1.8773    0.9072 H         1 <0>         0.0558
     26 H4          0.5123   -0.3556   -0.8948 H         1 <0>         0.0831
     27 H5          0.5293   -0.3651    0.8851 H         1 <0>         0.0767
     28 H6         -1.4976   -0.7650    2.1497 H         1 <0>         0.1393
     29 H7         -0.9402   -1.1563   -2.8820 H         1 <0>         0.0745
     30 H8         -2.2098    0.0563   -3.1749 H         1 <0>         0.0740
     31 H9         -0.7310    0.5109   -2.2946 H         1 <0>         0.0757
     32 H10        -6.3811   -0.9568   -0.0199 H         1 <0>         0.0723
     33 H11        -4.8956   -2.0336    2.3268 H         1 <0>         0.4118
     34 H12        -2.4033   -2.1967    3.6454 H         1 <0>         0.0733
     35 H13        -3.0159   -0.5333    3.8075 H         1 <0>         0.0717
     36 H14        -5.0410   -0.0626    5.0379 H         1 <0>         0.1235
     37 H15        -6.5469   -0.7311    6.8318 H         1 <0>         0.1294
     38 H16        -7.4409   -2.5117    8.3096 H         1 <0>         0.1282
     39 H17        -7.4417   -4.8451    9.0079 H         1 <0>         0.1249
     40 H18        -5.9597   -6.4831    7.9307 H         1 <0>         0.1252
     41 H19        -4.4530   -5.8143    6.1377 H         1 <0>         0.1286
     42 H20        -3.5663   -4.0358    4.6531 H         1 <0>         0.1302
@<TRIPOS>BOND
     1    1    2 1
     2    1   23 1
     3    1   24 1
     4    1   25 1
     5    2    3 1
     6    2   26 1
     7    2   27 1
     8    3    8 ar
     9    3    4 ar
    10    4    5 ar
    11    4   28 1
    12    5    6 ar
    13    5   11 1
    14    6    7 ar
    15    6   10 1
    16    7    8 ar
    17    8    9 1
    18    9   29 1
    19    9   30 1
    20    9   31 1
    21   10   32 1
    22   11   12 1
    23   11   33 1
    24   12   13 1
    25   12   34 1
    26   12   35 1
    27   13   22 ar
    28   13   14 ar
    29   14   15 ar
    30   14   36 1
    31   15   16 ar
    32   15   37 1
    33   16   21 ar
    34   16   17 ar
    35   17   18 ar
    36   17   38 1
    37   18   19 ar
    38   18   39 1
    39   19   20 ar
    40   19   40 1
    41   20   21 ar
    42   20   41 1
    43   21   22 ar
    44   22   42 1
@<TRIPOS>MOLECULE
CHEMBL30471
   40    42     0     0     0
SMALL
USER_CHARGES

@<TRIPOS>ATOM
      1 C1         -0.0187    1.5258    0.0104 C.3       1 <0>        -0.1492
      2 C2          0.0021   -0.0041    0.0020 C.3       1 <0>        -0.1221
      3 C3          0.7421   -0.5109    1.2415 C.3       1 <0>         0.0009
      4 C4          0.8859   -2.0031    1.1590 C.ar      1 <0>        -0.1427
      5 C5          2.1541   -2.5600    1.2275 C.ar      1 <0>        -0.0412
      6 C6          2.2814   -3.9392    1.1579 C.ar      1 <0>        -0.1458
      7 C7          1.1432   -4.7103    1.0243 C.ar      1 <0>         0.1610
      8 N1         -0.0465   -4.1518    0.9593 N.ar      1 <0>        -0.4958
      9 C8         -0.2144   -2.8316    1.0172 C.ar      1 <0>         0.3578
     10 N2         -1.5002   -2.3314    0.9190 N.am      1 <0>        -0.5298
     11 C9         -2.0315   -1.3437    1.6136 C.2       1 <0>         0.5758
     12 O1         -3.1940   -1.0718    1.3854 O.2       1 <0>        -0.5209
     13 C10        -1.3483   -0.5422    2.6365 C.ar      1 <0>        -0.1793
     14 C11        -0.0304   -0.1288    2.4733 C.ar      1 <0>         0.1785
     15 N3          0.5574    0.6038    3.4021 N.ar      1 <0>        -0.4815
     16 C12        -0.0629    0.9623    4.5084 C.ar      1 <0>         0.1298
     17 C13        -1.3712    0.5828    4.7481 C.ar      1 <0>        -0.1791
     18 C14        -2.0344   -0.1807    3.8048 C.ar      1 <0>        -0.0165
     19 C15        -2.3715   -2.9712   -0.0698 C.3       1 <0>         0.0769
     20 C16         1.2656   -6.2106    0.9514 C.3       1 <0>        -0.1096
     21 C17         3.6405   -4.5866    1.2265 C.3       1 <0>        -0.1119
     22 H1          1.0039    1.9031    0.0027 H         1 <0>         0.0615
     23 H2         -0.5459    1.8868   -0.8726 H         1 <0>         0.0610
     24 H3         -0.5289    1.8773    0.9072 H         1 <0>         0.0515
     25 H4         -1.0205   -0.3814    0.0098 H         1 <0>         0.0667
     26 H5          0.5123   -0.3556   -0.8948 H         1 <0>         0.0788
     27 H6          1.7323   -0.0570    1.2814 H         1 <0>         0.1134
     28 H7          3.0261   -1.9315    1.3327 H         1 <0>         0.1452
     29 H8          0.4586    1.5623    5.2394 H         1 <0>         0.1663
     30 H9         -1.8684    0.8794    5.6598 H         1 <0>         0.1477
     31 H10        -3.0564   -0.4911    3.9645 H         1 <0>         0.1466
     32 H11        -2.9030   -3.8006    0.3969 H         1 <0>         0.0705
     33 H12        -3.0912   -2.2435   -0.4448 H         1 <0>         0.0899
     34 H13        -1.7686   -3.3455   -0.8971 H         1 <0>         0.0763
     35 H14         1.2132   -6.6287    1.9567 H         1 <0>         0.0825
     36 H15         0.4518   -6.6126    0.3478 H         1 <0>         0.0796
     37 H16         2.2203   -6.4756    0.4970 H         1 <0>         0.0837
     38 H17         3.8885   -4.8016    2.2659 H         1 <0>         0.0759
     39 H18         3.6298   -5.5152    0.6559 H         1 <0>         0.0764
     40 H19         4.3863   -3.9111    0.8074 H         1 <0>         0.0710
@<TRIPOS>BOND
     1    1    2 1
     2    1   22 1
     3    1   23 1
     4    1   24 1
     5    2    3 1
     6    2   25 1
     7    2   26 1
     8    3   14 1
     9    3    4 1
    10    3   27 1
    11    4    9 ar
    12    4    5 ar
    13    5    6 ar
    14    5   28 1
    15    6    7 ar
    16    6   21 1
    17    7    8 ar
    18    7   20 1
    19    8    9 ar
    20    9   10 1
    21   10   11 am
    22   10   19 1
    23   11   12 2
    24   11   13 1
    25   13   18 ar
    26   13   14 ar
    27   14   15 ar
    28   15   16 ar
    29   16   17 ar
    30   16   29 1
    31   17   18 ar
    32   17   30 1
    33   18   31 1
    34   19   32 1
    35   19   33 1
    36   19   34 1
    37   20   35 1
    38   20   36 1
    39   20   37 1
    40   21   38 1
    41   21   39 1
    42   21   40 1
@<TRIPOS>MOLECULE
CHEMBL30471__1
   41    43     0     0     0
SMALL
USER_CHARGES

@<TRIPOS>ATOM
      1 C1         -0.0187    1.5258    0.0104 C.3       1 <0>        -0.1533
      2 C2          0.0021   -0.0041    0.0020 C.3       1 <0>        -0.1242
      3 C3          0.7421   -0.5109    1.2415 C.3       1 <0>        -0.0060
      4 C4          0.8859   -2.0031    1.1590 C.ar      1 <0>        -0.0979
      5 C5          2.1541   -2.5600    1.2275 C.ar      1 <0>         0.0343
      6 C6          2.2814   -3.9392    1.1579 C.ar      1 <0>        -0.0958
      7 C7          1.1432   -4.7103    1.0243 C.ar      1 <0>         0.1828
      8 N1         -0.0465   -4.1518    0.9593 N.ar      1 <0>        -0.4674
      9 C8         -0.2144   -2.8316    1.0172 C.ar      1 <0>         0.4022
     10 N2         -1.5002   -2.3314    0.9190 N.am      1 <0>        -0.5562
     11 C9         -2.0315   -1.3437    1.6136 C.2       1 <0>         0.5819
     12 O1         -3.1940   -1.0718    1.3854 O.2       1 <0>        -0.4694
     13 C10        -1.3486   -0.5428    2.6371 C.ar      1 <0>        -0.1956
     14 C11        -0.0304   -0.1288    2.4733 C.ar      1 <0>         0.1692
     15 N3          0.5574    0.6038    3.4021 N.ar      1 <0>        -0.4730
     16 C12        -0.0629    0.9623    4.5084 C.ar      1 <0>         0.1453
     17 C13        -1.3709    0.5820    4.7485 C.ar      1 <0>        -0.1656
     18 C14        -2.0349   -0.1822    3.8056 C.ar      1 <0>        -0.0086
     19 C15        -2.3715   -2.9712   -0.0698 C.3       1 <0>         0.0340
     20 C16         1.2656   -6.2106    0.9514 C.3       1 <0>        -0.1481
     21 C17         3.6405   -4.5866    1.2265 C.3       1 <0>        -0.1264
     22 H1          1.0039    1.9031    0.0027 H         1 <0>         0.0690
     23 H2         -0.5459    1.8868   -0.8726 H         1 <0>         0.0694
     24 H3         -0.5289    1.8773    0.9072 H         1 <0>         0.0560
     25 H4         -1.0205   -0.3814    0.0098 H         1 <0>         0.0639
     26 H5          0.5123   -0.3556   -0.8948 H         1 <0>         0.0864
     27 H6          1.7323   -0.0570    1.2814 H         1 <0>         0.1378
     28 H7          3.0261   -1.9315    1.3327 H         1 <0>         0.1865
     29 H8          0.4586    1.5623    5.2394 H         1 <0>         0.1765
     30 H9         -1.8679    0.8780    5.6605 H         1 <0>         0.1574
     31 H10        -3.0569   -0.4928    3.9649 H         1 <0>         0.1530
     32 H11        -2.9030   -3.8006    0.3969 H         1 <0>         0.0864
     33 H12        -3.0912   -2.2435   -0.4448 H         1 <0>         0.1236
     34 H13        -1.7686   -3.3455   -0.8971 H         1 <0>         0.0896
     35 H14         1.2132   -6.6287    1.9567 H         1 <0>         0.1211
     36 H15         0.4518   -6.6126    0.3478 H         1 <0>         0.0999
     37 H16         2.2203   -6.4756    0.4970 H         1 <0>         0.1248
     38 H17         3.8885   -4.8016    2.2659 H         1 <0>         0.1016
     39 H18         3.6298   -5.5152    0.6559 H         1 <0>         0.0935
     40 H19         4.3863   -3.9111    0.8074 H         1 <0>         0.0971
     41 H20        -0.8270   -4.7202    0.8659 H         1 <0>         0.4443
@<TRIPOS>BOND
     1    1    2 1
     2    1   22 1
     3    1   23 1
     4    1   24 1
     5    2    3 1
     6    2   25 1
     7    2   26 1
     8    3   14 1
     9    3    4 1
    10    3   27 1
    11    4    9 ar
    12    4    5 ar
    13    5    6 ar
    14    5   28 1
    15    6    7 ar
    16    6   21 1
    17    7    8 ar
    18    7   20 1
    19    8    9 ar
    20    8   41 1
    21    9   10 1
    22   10   11 am
    23   10   19 1
    24   11   12 2
    25   11   13 1
    26   13   18 ar
    27   13   14 ar
    28   14   15 ar
    29   15   16 ar
    30   16   17 ar
    31   16   29 1
    32   17   18 ar
    33   17   30 1
    34   18   31 1
    35   19   32 1
    36   19   33 1
    37   19   34 1
    38   20   35 1
    39   20   36 1
    40   20   37 1
    41   21   38 1
    42   21   39 1
    43   21   40 1
@<TRIPOS>MOLECULE
CHEMBL30471__2
   40    42     0     0     0
SMALL
USER_CHARGES

@<TRIPOS>ATOM
      1 C1         -0.0187    1.5258    0.0104 C.3       1 <0>        -0.1491
      2 C2          0.0021   -0.0041    0.0020 C.3       1 <0>        -0.1222
      3 C3          0.7421   -0.5109    1.2415 C.3       1 <0>         0.0010
      4 C4          0.6376   -2.0072    1.3056 C.ar      1 <0>        -0.1436
      5 C5          0.0987   -2.5945    2.4404 C.ar      1 <0>        -0.0403
      6 C6          0.0107   -3.9774    2.4979 C.ar      1 <0>        -0.1465
      7 C7          0.4628   -4.7218    1.4258 C.ar      1 <0>         0.1619
      8 N1          0.9668   -4.1347    0.3613 N.ar      1 <0>        -0.4979
      9 C8          1.0657   -2.8101    0.2618 C.ar      1 <0>         0.3596
     10 N2          1.5884   -2.2794   -0.9036 N.am      1 <0>        -0.5293
     11 C9          2.4284   -1.2687   -1.0182 C.2       1 <0>         0.5757
     12 O1          2.7834   -0.9713   -2.1420 O.2       1 <0>        -0.5209
     13 C10         2.9736   -0.4696    0.0860 C.ar      1 <0>        -0.1790
     14 C11         2.1838   -0.0916    1.1666 C.ar      1 <0>         0.1783
     15 N3          2.6944    0.6397    2.1409 N.ar      1 <0>        -0.4814
     16 C12         3.9534    1.0298    2.1383 C.ar      1 <0>         0.1297
     17 C13         4.8049    0.6858    1.1040 C.ar      1 <0>        -0.1791
     18 C14         4.3185   -0.0739    0.0558 C.ar      1 <0>        -0.0167
     19 C15         1.1607   -2.9125   -2.1537 C.3       1 <0>         0.0659
     20 C16         0.3782   -6.2256    1.4760 C.3       1 <0>        -0.1098
     21 C17        -0.5688   -4.6574    3.7115 C.3       1 <0>        -0.1119
     22 H1          1.0039    1.9031    0.0027 H         1 <0>         0.0516
     23 H2         -0.5459    1.8868   -0.8726 H         1 <0>         0.0609
     24 H3         -0.5289    1.8773    0.9072 H         1 <0>         0.0615
     25 H4         -1.0205   -0.3814    0.0098 H         1 <0>         0.0787
     26 H5          0.5123   -0.3556   -0.8948 H         1 <0>         0.0667
     27 H6          0.2872   -0.0813    2.1341 H         1 <0>         0.1134
     28 H7         -0.2455   -1.9866    3.2640 H         1 <0>         0.1452
     29 H8          4.3263    1.6273    2.9570 H         1 <0>         0.1663
     30 H9          5.8359    1.0075    1.1143 H         1 <0>         0.1477
     31 H10         4.9600   -0.3569   -0.7657 H         1 <0>         0.1466
     32 H11         0.2621   -2.4179   -2.5225 H         1 <0>         0.0649
     33 H12         1.9543   -2.8245   -2.8956 H         1 <0>         0.0907
     34 H13         0.9474   -3.9660   -1.9730 H         1 <0>         0.0919
     35 H14        -0.5786   -6.5495    1.0665 H         1 <0>         0.0839
     36 H15         1.1893   -6.6549    0.8879 H         1 <0>         0.0790
     37 H16         0.4627   -6.5599    2.5100 H         1 <0>         0.0833
     38 H17        -1.6441   -4.7793    3.5809 H         1 <0>         0.0766
     39 H18        -0.1047   -5.6357    3.8361 H         1 <0>         0.0760
     40 H19        -0.3769   -4.0489    4.5952 H         1 <0>         0.0706
@<TRIPOS>BOND
     1    1    2 1
     2    1   22 1
     3    1   23 1
     4    1   24 1
     5    2    3 1
     6    2   25 1
     7    2   26 1
     8    3   14 1
     9    3    4 1
    10    3   27 1
    11    4    9 ar
    12    4    5 ar
    13    5    6 ar
    14    5   28 1
    15    6    7 ar
    16    6   21 1
    17    7    8 ar
    18    7   20 1
    19    8    9 ar
    20    9   10 1
    21   10   11 am
    22   10   19 1
    23   11   12 2
    24   11   13 1
    25   13   18 ar
    26   13   14 ar
    27   14   15 ar
    28   15   16 ar
    29   16   17 ar
    30   16   29 1
    31   17   18 ar
    32   17   30 1
    33   18   31 1
    34   19   32 1
    35   19   33 1
    36   19   34 1
    37   20   35 1
    38   20   36 1
    39   20   37 1
    40   21   38 1
    41   21   39 1
    42   21   40 1
@<TRIPOS>MOLECULE
CHEMBL30471__3
   41    43     0     0     0
SMALL
USER_CHARGES

@<TRIPOS>ATOM
      1 C1         -0.0187    1.5258    0.0104 C.3       1 <0>        -0.1533
      2 C2          0.0021   -0.0041    0.0020 C.3       1 <0>        -0.1242
      3 C3          0.7421   -0.5109    1.2415 C.3       1 <0>        -0.0060
      4 C4          0.6376   -2.0072    1.3056 C.ar      1 <0>        -0.0984
      5 C5          0.0987   -2.5945    2.4404 C.ar      1 <0>         0.0354
      6 C6          0.0107   -3.9774    2.4979 C.ar      1 <0>        -0.0966
      7 C7          0.4628   -4.7218    1.4258 C.ar      1 <0>         0.1834
      8 N1          0.9668   -4.1347    0.3613 N.ar      1 <0>        -0.4697
      9 C8          1.0657   -2.8101    0.2618 C.ar      1 <0>         0.4035
     10 N2          1.5884   -2.2794   -0.9036 N.am      1 <0>        -0.5571
     11 C9          2.4284   -1.2687   -1.0182 C.2       1 <0>         0.5826
     12 O1          2.7834   -0.9713   -2.1420 O.2       1 <0>        -0.4693
     13 C10         2.9736   -0.4696    0.0860 C.ar      1 <0>        -0.1953
     14 C11         2.1838   -0.0916    1.1666 C.ar      1 <0>         0.1691
     15 N3          2.6944    0.6397    2.1409 N.ar      1 <0>        -0.4729
     16 C12         3.9534    1.0298    2.1383 C.ar      1 <0>         0.1454
     17 C13         4.8047    0.6866    1.1035 C.ar      1 <0>        -0.1654
     18 C14         4.3185   -0.0739    0.0558 C.ar      1 <0>        -0.0089
     19 C15         1.1607   -2.9125   -2.1537 C.3       1 <0>         0.0421
     20 C16         0.3782   -6.2256    1.4760 C.3       1 <0>        -0.1483
     21 C17        -0.5688   -4.6574    3.7115 C.3       1 <0>        -0.1263
     22 H1          1.0039    1.9031    0.0027 H         1 <0>         0.0561
     23 H2         -0.5459    1.8868   -0.8726 H         1 <0>         0.0694
     24 H3         -0.5289    1.8773    0.9072 H         1 <0>         0.0690
     25 H4         -1.0205   -0.3814    0.0098 H         1 <0>         0.0864
     26 H5          0.5123   -0.3556   -0.8948 H         1 <0>         0.0640
     27 H6          0.2872   -0.0813    2.1341 H         1 <0>         0.1379
     28 H7         -0.2455   -1.9866    3.2640 H         1 <0>         0.1866
     29 H8          4.3263    1.6273    2.9570 H         1 <0>         0.1765
     30 H9          5.8354    1.0088    1.1136 H         1 <0>         0.1576
     31 H10         4.9600   -0.3569   -0.7657 H         1 <0>         0.1529
     32 H11         0.2621   -2.4179   -2.5225 H         1 <0>         0.0970
     33 H12         1.9543   -2.8245   -2.8956 H         1 <0>         0.1207
     34 H13         0.9474   -3.9660   -1.9730 H         1 <0>         0.0751
     35 H14        -0.5786   -6.5495    1.0665 H         1 <0>         0.1215
     36 H15         1.1893   -6.6549    0.8879 H         1 <0>         0.0993
     37 H16         0.4627   -6.5599    2.5100 H         1 <0>         0.1252
     38 H17        -1.6441   -4.7793    3.5809 H         1 <0>         0.1023
     39 H18        -0.1047   -5.6357    3.8361 H         1 <0>         0.0932
     40 H19        -0.3769   -4.0489    4.5952 H         1 <0>         0.0966
     41 H20         1.2768   -4.6848   -0.3750 H         1 <0>         0.4432
@<TRIPOS>BOND
     1    1    2 1
     2    1   22 1
     3    1   23 1
     4    1   24 1
     5    2    3 1
     6    2   25 1
     7    2   26 1
     8    3   14 1
     9    3    4 1
    10    3   27 1
    11    4    9 ar
    12    4    5 ar
    13    5    6 ar
    14    5   28 1
    15    6    7 ar
    16    6   21 1
    17    7    8 ar
    18    7   20 1
    19    8    9 ar
    20    8   41 1
    21    9   10 1
    22   10   11 am
    23   10   19 1
    24   11   12 2
    25   11   13 1
    26   13   18 ar
    27   13   14 ar
    28   14   15 ar
    29   15   16 ar
    30   16   17 ar
    31   16   29 1
    32   17   18 ar
    33   17   30 1
    34   18   31 1
    35   19   32 1
    36   19   33 1
    37   19   34 1
    38   20   35 1
    39   20   36 1
    40   20   37 1
    41   21   38 1
    42   21   39 1
    43   21   40 1
@<TRIPOS>MOLECULE
CHEMBL358564
   39    42     0     0     0
SMALL
USER_CHARGES

@<TRIPOS>ATOM
      1 C1         -0.0187    1.5258    0.0104 C.3       1 <0>        -0.1712
      2 C2          0.0021   -0.0041    0.0020 C.3       1 <0>         0.1369
      3 N1         -1.3723   -0.5112    0.0124 N.pl3     1 <0>        -0.5782
      4 C3         -2.0200   -0.7545    1.2117 C.ar      1 <0>         0.4157
      5 C4         -3.2161   -0.0803    1.5075 C.ar      1 <0>        -0.2019
      6 C5         -3.8971   -0.4029    2.6866 C.ar      1 <0>        -0.0008
      7 C6         -3.3375   -1.3438    3.5340 C.ar      1 <0>        -0.1910
      8 C7         -2.1325   -1.9320    3.1961 C.ar      1 <0>         0.1512
      9 N2         -1.5177   -1.6301    2.0690 N.ar      1 <0>        -0.4991
     10 C8         -3.7299    0.9730    0.6279 C.2       1 <0>         0.5772
     11 O1         -4.2295    1.9449    1.1609 O.2       1 <0>        -0.5226
     12 N3         -3.6982    0.9606   -0.6965 N.am      1 <0>        -0.5380
     13 C9         -3.2051   -0.0583   -1.5095 C.ar      1 <0>         0.0952
     14 C10        -2.0454   -0.7488   -1.1850 C.ar      1 <0>         0.3735
     15 N4         -1.5634   -1.6643   -2.0140 N.ar      1 <0>        -0.4638
     16 C11        -2.1813   -1.9787   -3.1477 C.ar      1 <0>         0.2308
     17 C12        -3.3712   -1.3480   -3.5062 C.ar      1 <0>        -0.1413
     18 C13        -3.8871   -0.3818   -2.6802 C.ar      1 <0>        -0.0734
     19 C14        -1.6012   -3.0062   -4.0365 C.2       1 <0>        -0.1782
     20 C15        -0.4586   -3.7511   -3.8870 C.2       1 <0>         0.0845
     21 N5         -0.1813   -4.6034   -4.8485 N.2       1 <0>        -0.5162
     22 C16        -0.9593   -4.7325   -5.8957 C.2       1 <0>         0.0333
     23 S1         -2.1961   -3.6299   -5.6005 S.3       1 <0>         0.1475
     24 C17        -4.2369    2.1407   -1.3771 C.3       1 <0>         0.0576
     25 H1          1.0039    1.9031    0.0027 H         1 <0>         0.0730
     26 H2         -0.5459    1.8868   -0.8726 H         1 <0>         0.0541
     27 H3         -0.5289    1.8773    0.9072 H         1 <0>         0.0545
     28 H4          0.5123   -0.3556   -0.8948 H         1 <0>         0.0840
     29 H5          0.5293   -0.3651    0.8851 H         1 <0>         0.0851
     30 H6         -4.8365    0.0711    2.9299 H         1 <0>         0.1485
     31 H7         -3.8379   -1.6160    4.4516 H         1 <0>         0.1493
     32 H8         -1.6866   -2.6510    3.8674 H         1 <0>         0.1685
     33 H9         -3.8803   -1.6183   -4.4196 H         1 <0>         0.1479
     34 H10        -4.8063    0.1229   -2.9388 H         1 <0>         0.1528
     35 H11         0.1807   -3.6424   -3.0234 H         1 <0>         0.1815
     36 H12        -0.8383   -5.3920   -6.7424 H         1 <0>         0.2233
     37 H13        -4.5874    2.8591   -0.6360 H         1 <0>         0.1072
     38 H14        -3.4560    2.5976   -1.9850 H         1 <0>         0.0709
     39 H15        -5.0680    1.8435   -2.0166 H         1 <0>         0.0718
@<TRIPOS>BOND
     1    1    2 1
     2    1   25 1
     3    1   26 1
     4    1   27 1
     5    2    3 1
     6    2   28 1
     7    2   29 1
     8    3   14 1
     9    3    4 1
    10    4    9 ar
    11    4    5 ar
    12    5    6 ar
    13    5   10 1
    14    6    7 ar
    15    6   30 1
    16    7    8 ar
    17    7   31 1
    18    8    9 ar
    19    8   32 1
    20   10   11 2
    21   10   12 am
    22   12   13 1
    23   12   24 1
    24   13   18 ar
    25   13   14 ar
    26   14   15 ar
    27   15   16 ar
    28   16   17 ar
    29   16   19 1
    30   17   18 ar
    31   17   33 1
    32   18   34 1
    33   19   23 1
    34   19   20 2
    35   20   21 1
    36   20   35 1
    37   21   22 2
    38   22   23 1
    39   22   36 1
    40   24   37 1
    41   24   38 1
    42   24   39 1
@<TRIPOS>MOLECULE
CHEMBL276108
   49    50     0     0     0
SMALL
USER_CHARGES

@<TRIPOS>ATOM
      1 C1          4.6084   -0.1267    2.3410 C.3       1 <0>        -0.1189
      2 C2          3.7663   -1.3165    1.9585 C.ar      1 <0>        -0.0584
      3 C3          4.1676   -2.1431    0.9249 C.ar      1 <0>        -0.1157
      4 C4          3.3981   -3.2363    0.5710 C.ar      1 <0>        -0.0585
      5 C5          2.2257   -3.5061    1.2490 C.ar      1 <0>        -0.0946
      6 C6          1.8196   -2.6778    2.2878 C.ar      1 <0>        -0.1131
      7 C7          2.5977   -1.5834    2.6442 C.ar      1 <0>        -0.1352
      8 S1          0.3244   -3.0183    3.1557 S.3       1 <0>         0.0871
      9 C8          0.1283   -1.6330    4.2267 C.2       1 <0>         0.1366
     10 C9          0.2729   -1.7800    5.5791 C.2       1 <0>        -0.1750
     11 C10         0.1110   -0.6590    6.4076 C.2       1 <0>         0.5572
     12 O1          0.2356   -0.7664    7.6157 O.2       1 <0>        -0.4900
     13 N1         -0.1826    0.5368    5.8603 N.am      1 <0>        -0.6560
     14 H1         -0.2949    1.3124    6.4319 H         1 <0>         0.4333
     15 C11        -0.3212    0.6648    4.5282 C.2       1 <0>         0.6997
     16 O2         -0.5855    1.7534    4.0556 O.2       1 <0>        -0.5377
     17 N2         -0.1660   -0.3927    3.7105 N.am      1 <0>        -0.5363
     18 C12        -0.3165   -0.2229    2.2632 C.3       1 <0>         0.2636
     19 O3         -1.5819   -0.7439    1.8516 O.3       1 <0>        -0.3568
     20 C13        -2.6848    0.1214    2.1287 C.3       1 <0>         0.0543
     21 C14        -3.9912   -0.5818    1.7551 C.3       1 <0>         0.0792
     22 O4         -4.1798   -1.7175    2.6016 O.3       1 <0>        -0.5658
     23 C15         0.6010   -3.1266    6.1708 C.3       1 <0>        -0.0346
     24 C16         1.9274   -3.0412    6.9286 C.3       1 <0>        -0.1489
     25 C17        -0.5111   -3.5448    7.1347 C.3       1 <0>        -0.1489
     26 C18         3.8392   -4.1340   -0.5563 C.3       1 <0>        -0.1180
     27 H2          5.2741   -0.4007    3.1594 H         1 <0>         0.0754
     28 H3          5.1999    0.1909    1.4823 H         1 <0>         0.0721
     29 H4          3.9602    0.6904    2.6579 H         1 <0>         0.0661
     30 H5          5.0839   -1.9342    0.3928 H         1 <0>         0.1285
     31 H6          1.6251   -4.3598    0.9719 H         1 <0>         0.1325
     32 H7          2.2872   -0.9401    3.4542 H         1 <0>         0.1157
     33 H8         -0.2615    0.8368    2.0140 H         1 <0>         0.1073
     34 H9          0.4816   -0.7589    1.7495 H         1 <0>         0.1294
     35 H10        -2.6955    0.3678    3.1904 H         1 <0>         0.0559
     36 H11        -2.5846    1.0362    1.5444 H         1 <0>         0.0736
     37 H12        -4.8249    0.1088    1.8825 H         1 <0>         0.0630
     38 H13        -3.9445   -0.9071    0.7158 H         1 <0>         0.0584
     39 H14        -4.9906   -2.2125    2.4208 H         1 <0>         0.3814
     40 H15         0.6857   -3.8635    5.3721 H         1 <0>         0.1006
     41 H16         2.1647   -4.0152    7.3566 H         1 <0>         0.0646
     42 H17         2.7197   -2.7433    6.2419 H         1 <0>         0.0502
     43 H18         1.8427   -2.3043    7.7274 H         1 <0>         0.0707
     44 H19        -1.4561   -3.6056    6.5947 H         1 <0>         0.0528
     45 H20        -0.2739   -4.5188    7.5626 H         1 <0>         0.0649
     46 H21        -0.5958   -2.8079    7.9334 H         1 <0>         0.0707
     47 H22         4.4661   -4.9330   -0.1605 H         1 <0>         0.0759
     48 H23         2.9635   -4.5655   -1.0410 H         1 <0>         0.0709
     49 H24         4.4070   -3.5526   -1.2827 H         1 <0>         0.0707
@<TRIPOS>BOND
     1    1    2 1
     2    1   27 1
     3    1   28 1
     4    1   29 1
     5    2    7 ar
     6    2    3 ar
     7    3    4 ar
     8    3   30 1
     9    4    5 ar
    10    4   26 1
    11    5    6 ar
    12    5   31 1
    13    6    7 ar
    14    6    8 1
    15    7   32 1
    16    8    9 1
    17    9   17 1
    18    9   10 2
    19   10   11 1
    20   10   23 1
    21   11   12 2
    22   11   13 am
    23   13   14 1
    24   13   15 am
    25   15   16 2
    26   15   17 am
    27   17   18 1
    28   18   19 1
    29   18   33 1
    30   18   34 1
    31   19   20 1
    32   20   21 1
    33   20   35 1
    34   20   36 1
    35   21   22 1
    36   21   37 1
    37   21   38 1
    38   22   39 1
    39   23   24 1
    40   23   25 1
    41   23   40 1
    42   24   41 1
    43   24   42 1
    44   24   43 1
    45   25   44 1
    46   25   45 1
    47   25   46 1
    48   26   47 1
    49   26   48 1
    50   26   49 1
@<TRIPOS>MOLECULE
CHEMBL281968
   35    38     0     0     0
SMALL
USER_CHARGES

@<TRIPOS>ATOM
      1 C1         -0.0178    1.4608    0.0101 C.3       1 <0>         0.0588
      2 N1          0.0021   -0.0041    0.0020 N.am      1 <0>        -0.5307
      3 C2         -1.2299   -0.6342    0.0049 C.ar      1 <0>         0.3671
      4 C3         -1.4859   -1.7460   -0.7799 C.ar      1 <0>        -0.1248
      5 C4         -2.7433   -2.3291   -0.7461 C.ar      1 <0>        -0.0308
      6 C5         -3.7112   -1.7803    0.0840 C.ar      1 <0>        -0.1026
      7 C6         -3.3891   -0.6741    0.8471 C.ar      1 <0>         0.1508
      8 N2         -2.1864   -0.1421    0.7898 N.ar      1 <0>        -0.4826
      9 Cl1        -5.3014   -2.4723    0.1617 Cl        1 <0>        -0.0401
     10 C7         -0.4310   -2.3461   -1.6637 C.3       1 <0>         0.0329
     11 C8          0.7062   -2.8753   -0.8347 C.ar      1 <0>         0.1770
     12 C9          1.4607   -2.0151   -0.0428 C.ar      1 <0>        -0.1744
     13 C10         2.5069   -2.5433    0.7275 C.ar      1 <0>        -0.0160
     14 C11         2.7509   -3.9031    0.6618 C.ar      1 <0>        -0.1763
     15 C12         1.9605   -4.6911   -0.1552 C.ar      1 <0>         0.1309
     16 N3          0.9814   -4.1666   -0.8649 N.ar      1 <0>        -0.4811
     17 C13         1.1923   -0.5726   -0.0124 C.2       1 <0>         0.5791
     18 O1          2.1567    0.1671    0.0060 O.2       1 <0>        -0.5163
     19 C14         0.0959   -1.2758   -2.6217 C.3       1 <0>        -0.1680
     20 C15        -0.2388   -1.4302   -4.1066 C.3       1 <0>        -0.1613
     21 C16         1.1858   -1.6894   -3.6126 C.3       1 <0>        -0.1680
     22 H1          1.0048    1.8381    0.0023 H         1 <0>         0.1057
     23 H2         -0.5450    1.8219   -0.8730 H         1 <0>         0.0688
     24 H3         -0.5280    1.8123    0.9069 H         1 <0>         0.0830
     25 H4         -2.9657   -3.1934   -1.3543 H         1 <0>         0.1563
     26 H5         -4.1335   -0.2406    1.4985 H         1 <0>         0.1762
     27 H6         -0.8658   -3.1615   -2.2419 H         1 <0>         0.1162
     28 H7          3.1079   -1.9034    1.3566 H         1 <0>         0.1476
     29 H8          3.5487   -4.3440    1.2410 H         1 <0>         0.1487
     30 H9          2.1488   -5.7530   -0.2129 H         1 <0>         0.1675
     31 H10         0.1404   -0.2643   -2.2180 H         1 <0>         0.1102
     32 H11        -0.8345   -2.2943   -4.4010 H         1 <0>         0.1004
     33 H12        -0.4149   -0.5202   -4.6801 H         1 <0>         0.0995
     34 H13         1.9470   -0.9499   -3.8611 H         1 <0>         0.0986
     35 H14         1.5275   -2.7241   -3.5821 H         1 <0>         0.0976
@<TRIPOS>BOND
     1    1    2 1
     2    1   22 1
     3    1   23 1
     4    1   24 1
     5    2   17 am
     6    2    3 1
     7    3    8 ar
     8    3    4 ar
     9    4    5 ar
    10    4   10 1
    11    5    6 ar
    12    5   25 1
    13    6    7 ar
    14    6    9 1
    15    7    8 ar
    16    7   26 1
    17   10   11 1
    18   10   19 1
    19   10   27 1
    20   11   16 ar
    21   11   12 ar
    22   12   13 ar
    23   12   17 1
    24   13   14 ar
    25   13   28 1
    26   14   15 ar
    27   14   29 1
    28   15   16 ar
    29   15   30 1
    30   17   18 2
    31   19   21 1
    32   19   20 1
    33   19   31 1
    34   20   21 1
    35   20   32 1
    36   20   33 1
    37   21   34 1
    38   21   35 1
@<TRIPOS>MOLECULE
CHEMBL281968__1
   35    38     0     0     0
SMALL
USER_CHARGES

@<TRIPOS>ATOM
      1 C1         -0.0178    1.4608    0.0101 C.3       1 <0>         0.0603
      2 N1          0.0021   -0.0041    0.0020 N.am      1 <0>        -0.5271
      3 C2         -1.2299   -0.6342    0.0049 C.ar      1 <0>         0.3714
      4 C3         -1.4777   -1.7550    0.7794 C.ar      1 <0>        -0.1241
      5 C4         -2.7355   -2.3375    0.7523 C.ar      1 <0>        -0.0335
      6 C5         -3.7120   -1.7792   -0.0611 C.ar      1 <0>        -0.1028
      7 C6         -3.3979   -0.6644   -0.8149 C.ar      1 <0>         0.1506
      8 N2         -2.1946   -0.1331   -0.7642 N.ar      1 <0>        -0.4831
      9 Cl1        -5.3027   -2.4710   -0.1309 Cl        1 <0>        -0.0407
     10 C7         -0.4136   -2.3652    1.6451 C.3       1 <0>         0.0329
     11 C8          0.7147   -2.8848    0.7981 C.ar      1 <0>         0.1771
     12 C9          1.4608   -2.0156    0.0081 C.ar      1 <0>        -0.1795
     13 C10         2.4987   -2.5349   -0.7791 C.ar      1 <0>        -0.0154
     14 C11         2.7432   -3.8954   -0.7317 C.ar      1 <0>        -0.1764
     15 C12         1.9615   -4.6928    0.0846 C.ar      1 <0>         0.1319
     16 N3          0.9900   -4.1764    0.8106 N.ar      1 <0>        -0.4798
     17 C13         1.1923   -0.5726   -0.0124 C.2       1 <0>         0.5767
     18 O1          2.1562    0.1673   -0.0408 O.2       1 <0>        -0.5184
     19 C14         0.1236   -1.3059    2.6097 C.3       1 <0>        -0.1623
     20 C15         0.1671   -1.6620    4.0970 C.3       1 <0>        -0.1636
     21 C16        -0.8708   -0.6642    3.5793 C.3       1 <0>        -0.1652
     22 H1          1.0048    1.8381    0.0023 H         1 <0>         0.1047
     23 H2         -0.5450    1.8219   -0.8730 H         1 <0>         0.0821
     24 H3         -0.5280    1.8123    0.9069 H         1 <0>         0.0693
     25 H4         -2.9514   -3.2092    1.3523 H         1 <0>         0.1556
     26 H5         -4.1489   -0.2238   -1.4538 H         1 <0>         0.1758
     27 H6         -0.8424   -3.1871    2.2185 H         1 <0>         0.1165
     28 H7          3.0927   -1.8880   -1.4077 H         1 <0>         0.1482
     29 H8          3.5344   -4.3298   -1.3248 H         1 <0>         0.1492
     30 H9          2.1498   -5.7554    0.1275 H         1 <0>         0.1681
     31 H10         0.9231   -0.6765    2.2189 H         1 <0>         0.1054
     32 H11        -0.1869   -2.6509    4.3884 H         1 <0>         0.1012
     33 H12         0.9955   -1.2669    4.6851 H         1 <0>         0.0991
     34 H13        -0.7253    0.3873    3.8268 H         1 <0>         0.0982
     35 H14        -1.9077   -0.9967    3.5301 H         1 <0>         0.0976
@<TRIPOS>BOND
     1    1    2 1
     2    1   22 1
     3    1   23 1
     4    1   24 1
     5    2   17 am
     6    2    3 1
     7    3    8 ar
     8    3    4 ar
     9    4    5 ar
    10    4   10 1
    11    5    6 ar
    12    5   25 1
    13    6    7 ar
    14    6    9 1
    15    7    8 ar
    16    7   26 1
    17   10   11 1
    18   10   19 1
    19   10   27 1
    20   11   16 ar
    21   11   12 ar
    22   12   13 ar
    23   12   17 1
    24   13   14 ar
    25   13   28 1
    26   14   15 ar
    27   14   29 1
    28   15   16 ar
    29   15   30 1
    30   17   18 2
    31   19   21 1
    32   19   20 1
    33   19   31 1
    34   20   21 1
    35   20   32 1
    36   20   33 1
    37   21   34 1
    38   21   35 1
@<TRIPOS>MOLECULE
CHEMBL176637
   39    41     0     0     0
SMALL
USER_CHARGES

@<TRIPOS>ATOM
      1 C1         -0.0187    1.5258    0.0104 C.3       1 <0>        -0.1550
      2 C2          0.0021   -0.0041    0.0020 C.3       1 <0>        -0.0723
      3 C3          0.7074   -0.4901   -1.2379 C.2       1 <0>        -0.2246
      4 C4          0.0003   -0.6217   -2.4412 C.2       1 <0>         0.1343
      5 C5          0.6542   -1.0625   -3.5541 C.2       1 <0>        -0.8073
      6 C6          2.0218   -1.3748   -3.4699 C.2       1 <0>         0.5647
      7 N1          2.6734   -1.2380   -2.2994 N.am      1 <0>        -0.5988
      8 C7          2.0254   -0.7945   -1.1919 C.2       1 <0>         0.2311
      9 C8          2.7803   -0.6452    0.1038 C.3       1 <0>        -0.1436
     10 O1          2.6192   -1.7707   -4.4580 O.2       1 <0>        -0.5302
     11 S1         -0.2068   -1.2389   -5.0813 S.o2      1 <0>         2.5298
     12 O2          0.0978   -2.5560   -5.5192 O.2       1 <0>        -0.9006
     13 O3         -1.5458   -0.8646   -4.7879 O.2       1 <0>        -0.9154
     14 C9          0.5542   -0.0206   -6.1890 C.3       1 <0>        -0.5304
     15 C10        -0.1120   -0.0842   -7.5393 C.2       1 <0>         0.2560
     16 N2         -1.1463    0.6187   -7.8908 N.2       1 <0>        -0.4332
     17 C11        -1.4750    0.3042   -9.1731 C.ar      1 <0>         0.0374
     18 C12        -2.4739    0.7365  -10.0490 C.ar      1 <0>         0.0257
     19 C13        -2.5427    0.2099  -11.3204 C.ar      1 <0>        -0.0965
     20 C14        -1.6272   -0.7462  -11.7350 C.ar      1 <0>        -0.0643
     21 C15        -0.6356   -1.1828  -10.8802 C.ar      1 <0>        -0.0103
     22 C16        -0.5510   -0.6623   -9.5963 C.ar      1 <0>         0.0351
     23 O4          0.2820   -0.8711   -8.5529 O.3       1 <0>        -0.1840
     24 Cl1         0.5039   -2.3807  -11.4098 Cl        1 <0>        -0.0330
     25 Cl2        -3.6241    1.9319   -9.5374 Cl        1 <0>        -0.0269
     26 H1          1.0039    1.9031    0.0027 H         1 <0>         0.0555
     27 H2         -0.5459    1.8868   -0.8726 H         1 <0>         0.0597
     28 H3         -0.5289    1.8773    0.9072 H         1 <0>         0.0647
     29 H4          0.5293   -0.3651    0.8851 H         1 <0>         0.0805
     30 H5         -1.0205   -0.3814    0.0098 H         1 <0>         0.0828
     31 H6         -1.0507   -0.3770   -2.4865 H         1 <0>         0.1636
     32 H7          2.7296   -1.5791    0.6636 H         1 <0>         0.1038
     33 H8          3.8221   -0.4047   -0.1082 H         1 <0>         0.0873
     34 H9          2.3352    0.1564    0.6933 H         1 <0>         0.1064
     35 H10         3.6173   -1.4556   -2.2478 H         1 <0>         0.4231
     36 H11         0.4314    0.9781   -5.7699 H         1 <0>         0.1788
     37 H12         1.6162   -0.2411   -6.2970 H         1 <0>         0.1763
     38 H13        -3.3144    0.5433  -11.9983 H         1 <0>         0.1635
     39 H14        -1.6911   -1.1522  -12.7337 H         1 <0>         0.1664
@<TRIPOS>BOND
     1    1    2 1
     2    1   26 1
     3    1   27 1
     4    1   28 1
     5    2   29 1
     6    2   30 1
     7    2    3 1
     8    3    8 2
     9    3    4 1
    10    4   31 1
    11    4    5 2
    12    5    6 1
    13    5   11 1
    14    6   10 2
    15    6    7 am
    16    7   35 1
    17    7    8 1
    18    8    9 1
    19    9   32 1
    20    9   33 1
    21    9   34 1
    22   11   12 2
    23   11   13 2
    24   11   14 1
    25   14   15 1
    26   14   36 1
    27   14   37 1
    28   15   23 1
    29   15   16 2
    30   16   17 1
    31   17   22 ar
    32   17   18 ar
    33   18   19 ar
    34   18   25 1
    35   19   20 ar
    36   19   38 1
    37   20   21 ar
    38   20   39 1
    39   21   22 ar
    40   21   24 1
    41   22   23 1
@<TRIPOS>MOLECULE
CHEMBL144744
   46    48     0     0     0
SMALL
USER_CHARGES

@<TRIPOS>ATOM
      1 C1         -0.0187    1.5258    0.0104 C.3       1 <0>        -0.1762
      2 C2          0.0021   -0.0041    0.0020 C.3       1 <0>         0.1218
      3 N1         -1.3723   -0.5112    0.0124 N.pl3     1 <0>        -0.5850
      4 C3         -2.0200   -0.7545    1.2118 C.ar      1 <0>         0.3842
      5 C4         -3.2157   -0.0800    1.5081 C.ar      1 <0>        -0.1913
      6 C5         -3.8966   -0.4027    2.6871 C.ar      1 <0>         0.0028
      7 C6         -3.3373   -1.3441    3.5342 C.ar      1 <0>        -0.1675
      8 C7         -2.1325   -1.9325    3.1959 C.ar      1 <0>         0.1559
      9 N2         -1.5178   -1.6305    2.0688 N.ar      1 <0>        -0.4934
     10 C8         -3.7293    0.9740    0.6289 C.2       1 <0>         0.5760
     11 O1         -4.2288    1.9459    1.1621 O.2       1 <0>        -0.4925
     12 N3         -3.6973    0.9618   -0.6956 N.am      1 <0>        -0.6427
     13 C9         -3.2030   -0.0597   -1.5097 C.ar      1 <0>         0.0931
     14 C10        -2.0454   -0.7488   -1.1852 C.ar      1 <0>         0.4054
     15 N4         -1.5634   -1.6661   -2.0159 N.ar      1 <0>        -0.5151
     16 C11        -2.1787   -1.9790   -3.1454 C.ar      1 <0>         0.4575
     17 C12        -3.3641   -1.3519   -3.5047 C.ar      1 <0>        -0.1952
     18 C13        -3.8835   -0.3842   -2.6801 C.ar      1 <0>         0.0655
     19 C14        -5.1655    0.3196   -3.0437 C.3       1 <0>        -0.1435
     20 N5         -1.6307   -2.9473   -3.9825 N.pl3     1 <0>        -0.5746
     21 C15        -0.3800   -3.6137   -3.6114 C.3       1 <0>         0.0583
     22 C16        -2.3050   -3.2997   -5.2345 C.3       1 <0>         0.1078
     23 C17        -1.7907   -2.4014   -6.3611 C.3       1 <0>         0.0510
     24 O2         -0.4056   -2.6692   -6.5893 O.3       1 <0>        -0.5732
     25 H1          1.0039    1.9031    0.0027 H         1 <0>         0.0856
     26 H2         -0.5459    1.8868   -0.8726 H         1 <0>         0.0594
     27 H3         -0.5289    1.8773    0.9072 H         1 <0>         0.0658
     28 H4          0.5123   -0.3556   -0.8948 H         1 <0>         0.0785
     29 H5          0.5293   -0.3651    0.8851 H         1 <0>         0.1060
     30 H6         -4.8359    0.0715    2.9306 H         1 <0>         0.1582
     31 H7         -3.8376   -1.6164    4.4517 H         1 <0>         0.1599
     32 H8         -1.6868   -2.6519    3.8669 H         1 <0>         0.1782
     33 H9         -4.0543    1.7430   -1.1465 H         1 <0>         0.4249
     34 H10        -3.8713   -1.6234   -4.4187 H         1 <0>         0.1872
     35 H11        -4.9384    1.2027   -3.6410 H         1 <0>         0.1106
     36 H12        -5.7997   -0.3549   -3.6191 H         1 <0>         0.1033
     37 H13        -5.6857    0.6200   -2.1342 H         1 <0>         0.0934
     38 H14        -0.6034   -4.5064   -3.0272 H         1 <0>         0.0834
     39 H15         0.1627   -3.8962   -4.5134 H         1 <0>         0.1182
     40 H16         0.2313   -2.9343   -3.0173 H         1 <0>         0.0681
     41 H17        -2.0981   -4.3419   -5.4777 H         1 <0>         0.1168
     42 H18        -3.3799   -3.1598   -5.1202 H         1 <0>         0.1124
     43 H19        -2.3544   -2.6023   -7.2721 H         1 <0>         0.0767
     44 H20        -1.9170   -1.3562   -6.0788 H         1 <0>         0.0536
     45 H21        -0.0122   -2.1342   -7.2922 H         1 <0>         0.3940
     46 H22        -0.7367   -2.1196   -1.7885 H         1 <0>         0.4371
@<TRIPOS>BOND
     1    1    2 1
     2    1   25 1
     3    1   26 1
     4    1   27 1
     5    2    3 1
     6    2   28 1
     7    2   29 1
     8    3   14 1
     9    3    4 1
    10    4    9 ar
    11    4    5 ar
    12    5    6 ar
    13    5   10 1
    14    6    7 ar
    15    6   30 1
    16    7    8 ar
    17    7   31 1
    18    8    9 ar
    19    8   32 1
    20   10   11 2
    21   10   12 am
    22   12   13 1
    23   12   33 1
    24   13   18 ar
    25   13   14 ar
    26   14   15 ar
    27   15   16 ar
    28   15   46 1
    29   16   17 ar
    30   16   20 1
    31   17   18 ar
    32   17   34 1
    33   18   19 1
    34   19   35 1
    35   19   36 1
    36   19   37 1
    37   20   21 1
    38   20   22 1
    39   21   38 1
    40   21   39 1
    41   21   40 1
    42   22   23 1
    43   22   41 1
    44   22   42 1
    45   23   24 1
    46   23   43 1
    47   23   44 1
    48   24   45 1
@<TRIPOS>MOLECULE
CHEMBL338339
   45    47     0     0     0
SMALL
USER_CHARGES

@<TRIPOS>ATOM
      1 C1         -0.0184    1.5028    0.0103 C.3       1 <0>        -0.0735
      2 C2          0.0021   -0.0041    0.0020 C.2       1 <0>         0.0749
      3 C3          0.0081   -0.8157   -1.1153 C.2       1 <0>        -0.0858
      4 C4         -0.0010   -0.5757   -2.5014 C.2       1 <0>         0.0308
      5 C5          0.0099   -1.6364   -3.3540 C.2       1 <0>        -0.2096
      6 C6          0.0299   -2.9465   -2.8493 C.2       1 <0>         0.2204
      7 N1          0.0380   -3.1768   -1.5637 N.2       1 <0>        -0.2649
      8 N2          0.0278   -2.1180   -0.6503 N.pl3     1 <0>        -0.2662
      9 C7          0.0330   -2.0543    0.6936 C.2       1 <0>         0.2543
     10 N3          0.0235   -0.7987    1.0712 N.2       1 <0>        -0.4535
     11 C8          0.0529   -3.2419    1.6211 C.3       1 <0>        -0.0359
     12 C9          1.5020   -3.6247    1.9285 C.3       1 <0>        -0.1102
     13 C10         1.5222   -4.8304    2.8701 C.3       1 <0>        -0.1153
     14 C11         2.9713   -5.2132    3.1776 C.3       1 <0>        -0.1183
     15 C12         2.9915   -6.4189    4.1192 C.3       1 <0>         0.0655
     16 O1          4.3449   -6.7765    4.4063 O.3       1 <0>        -0.3480
     17 C13         4.5390   -7.8266    5.2275 C.2       1 <0>         0.5089
     18 O2          3.5855   -8.4225    5.6872 O.2       1 <0>        -0.5034
     19 C14         5.9114   -8.2535    5.5689 C.ar      1 <0>        -0.1282
     20 C15         7.0096   -7.5672    5.0468 C.ar      1 <0>        -0.0620
     21 C16         8.2884   -7.9712    5.3696 C.ar      1 <0>        -0.1336
     22 C17         8.4842   -9.0538    6.2088 C.ar      1 <0>        -0.0828
     23 C18         7.4004   -9.7387    6.7294 C.ar      1 <0>        -0.1313
     24 C19         6.1162   -9.3415    6.4197 C.ar      1 <0>        -0.0550
     25 Cl1         0.0436   -4.2851   -3.9546 Cl        1 <0>         0.0242
     26 H1          1.0042    1.8801    0.0026 H         1 <0>         0.0796
     27 H2         -0.5455    1.8639   -0.8728 H         1 <0>         0.0755
     28 H3         -0.5286    1.8543    0.9071 H         1 <0>         0.0815
     29 H4         -0.0167    0.4345   -2.8830 H         1 <0>         0.1657
     30 H5          0.0028   -1.4701   -4.4211 H         1 <0>         0.1601
     31 H6         -0.4602   -2.9873    2.5484 H         1 <0>         0.1020
     32 H7         -0.4520   -4.0827    1.1456 H         1 <0>         0.0887
     33 H8          2.0151   -3.8793    1.0011 H         1 <0>         0.0642
     34 H9          2.0069   -2.7838    2.4040 H         1 <0>         0.0731
     35 H10         1.0091   -4.5758    3.7975 H         1 <0>         0.0721
     36 H11         1.0173   -5.6713    2.3946 H         1 <0>         0.0698
     37 H12         3.4844   -5.4678    2.2502 H         1 <0>         0.0748
     38 H13         3.4761   -4.3723    3.6531 H         1 <0>         0.0765
     39 H14         2.4784   -6.1643    5.0466 H         1 <0>         0.0705
     40 H15         2.4866   -7.2598    3.6437 H         1 <0>         0.0697
     41 H16         6.8582   -6.7223    4.3913 H         1 <0>         0.1385
     42 H17         9.1388   -7.4416    4.9662 H         1 <0>         0.1329
     43 H18         9.4876   -9.3659    6.4583 H         1 <0>         0.1310
     44 H19         7.5603  -10.5832    7.3832 H         1 <0>         0.1343
     45 H20         5.2711   -9.8739    6.8305 H         1 <0>         0.1381
@<TRIPOS>BOND
     1    1    2 1
     2    1   26 1
     3    1   27 1
     4    1   28 1
     5    2   10 1
     6    2    3 2
     7    3    8 1
     8    3    4 1
     9    4    5 2
    10    4   29 1
    11    5    6 1
    12    5   30 1
    13    6    7 2
    14    6   25 1
    15    7    8 1
    16    8    9 1
    17    9   10 2
    18    9   11 1
    19   11   12 1
    20   11   31 1
    21   11   32 1
    22   12   13 1
    23   12   33 1
    24   12   34 1
    25   13   14 1
    26   13   35 1
    27   13   36 1
    28   14   15 1
    29   14   37 1
    30   14   38 1
    31   15   16 1
    32   15   39 1
    33   15   40 1
    34   16   17 1
    35   17   18 2
    36   17   19 1
    37   19   24 ar
    38   19   20 ar
    39   20   21 ar
    40   20   41 1
    41   21   22 ar
    42   21   42 1
    43   22   23 ar
    44   22   43 1
    45   23   24 ar
    46   23   44 1
    47   24   45 1
@<TRIPOS>MOLECULE
CHEMBL144852
   44    47     0     0     0
SMALL
USER_CHARGES

@<TRIPOS>ATOM
      1 C1         -0.0187    1.5258    0.0104 C.3       1 <0>        -0.1743
      2 C2          0.0021   -0.0041    0.0020 C.3       1 <0>         0.1352
      3 N1         -1.3723   -0.5112    0.0124 N.pl3     1 <0>        -0.5759
      4 C3         -2.0200   -0.7546    1.2116 C.ar      1 <0>         0.4028
      5 C4         -3.2165   -0.0809    1.5072 C.ar      1 <0>        -0.2038
      6 C5         -3.8974   -0.4036    2.6863 C.ar      1 <0>         0.0028
      7 C6         -3.3375   -1.3440    3.5340 C.ar      1 <0>        -0.1789
      8 C7         -2.1321   -1.9316    3.1963 C.ar      1 <0>         0.1558
      9 N2         -1.5174   -1.6298    2.0692 N.ar      1 <0>        -0.4957
     10 C8         -3.7308    0.9719    0.6273 C.2       1 <0>         0.5765
     11 O1         -4.2309    1.9437    1.1600 O.2       1 <0>        -0.4950
     12 N3         -3.6990    0.9591   -0.6971 N.am      1 <0>        -0.5436
     13 C9         -3.2066   -0.0595   -1.5095 C.ar      1 <0>         0.1503
     14 C10        -2.0454   -0.7488   -1.1849 C.ar      1 <0>         0.3973
     15 N4         -1.5633   -1.6635   -2.0141 N.ar      1 <0>        -0.4572
     16 C11        -2.1810   -1.9779   -3.1472 C.ar      1 <0>         0.2427
     17 C12        -3.3710   -1.3487   -3.5054 C.ar      1 <0>        -0.1268
     18 C13        -3.8889   -0.3837   -2.6794 C.ar      1 <0>        -0.0653
     19 N5         -1.6417   -2.9308   -3.9726 N.pl3     1 <0>        -0.3324
     20 C14        -2.1710   -3.2959   -5.0858 C.2       1 <0>         0.2912
     21 C15        -1.3378   -4.3640   -5.7588 C.3       1 <0>        -0.1471
     22 C16        -0.4060   -4.8721   -4.6321 C.3       1 <0>        -0.1392
     23 C17        -0.3918   -3.6451   -3.6883 C.3       1 <0>         0.0375
     24 C18        -4.2383    2.1389   -1.3780 C.3       1 <0>         0.0508
     25 H1          1.0039    1.9031    0.0027 H         1 <0>         0.0798
     26 H2         -0.5459    1.8868   -0.8726 H         1 <0>         0.0531
     27 H3         -0.5289    1.8773    0.9072 H         1 <0>         0.0597
     28 H4          0.5123   -0.3556   -0.8948 H         1 <0>         0.0818
     29 H5          0.5293   -0.3651    0.8851 H         1 <0>         0.0930
     30 H6         -4.8371    0.0699    2.9294 H         1 <0>         0.1540
     31 H7         -3.8378   -1.6162    4.4516 H         1 <0>         0.1563
     32 H8         -1.6860   -2.6503    3.8677 H         1 <0>         0.1745
     33 H9         -3.8798   -1.6193   -4.4188 H         1 <0>         0.1648
     34 H10        -4.8084    0.1204   -2.9380 H         1 <0>         0.1745
     35 H11        -3.0891   -2.8932   -5.4874 H         1 <0>         0.2247
     36 H12         0.4656   -3.0079   -3.9050 H         1 <0>         0.1340
     37 H13        -1.9728   -5.1714   -6.1235 H         1 <0>         0.1483
     38 H14        -0.8282   -5.7472   -4.1381 H         1 <0>         0.1084
     39 H15        -0.3697   -3.9696   -2.6480 H         1 <0>         0.1347
     40 H16         0.5931   -5.0826   -5.0136 H         1 <0>         0.1275
     41 H17        -4.5892    2.8572   -0.6371 H         1 <0>         0.1159
     42 H18        -3.4576    2.5960   -1.9860 H         1 <0>         0.0772
     43 H19        -5.0693    1.8412   -2.0174 H         1 <0>         0.0781
     44 H20        -0.7543   -3.9367   -6.5743 H         1 <0>         0.1517
@<TRIPOS>BOND
     1    1    2 1
     2    1   25 1
     3    1   26 1
     4    1   27 1
     5    2    3 1
     6    2   28 1
     7    2   29 1
     8    3   14 1
     9    3    4 1
    10    4    9 ar
    11    4    5 ar
    12    5    6 ar
    13    5   10 1
    14    6    7 ar
    15    6   30 1
    16    7    8 ar
    17    7   31 1
    18    8    9 ar
    19    8   32 1
    20   10   11 2
    21   10   12 am
    22   12   13 1
    23   12   24 1
    24   13   18 ar
    25   13   14 ar
    26   14   15 ar
    27   15   16 ar
    28   16   17 ar
    29   16   19 1
    30   17   18 ar
    31   17   33 1
    32   18   34 1
    33   19   20 2
    34   19   23 1
    35   20   35 1
    36   20   21 1
    37   21   22 1
    38   21   37 1
    39   21   44 1
    40   22   23 1
    41   22   38 1
    42   22   40 1
    43   23   39 1
    44   23   36 1
    45   24   41 1
    46   24   42 1
    47   24   43 1
@<TRIPOS>MOLECULE
CHEMBL431274
   38    40     0     0     0
SMALL
USER_CHARGES

@<TRIPOS>ATOM
      1 C1         -0.0187    1.5258    0.0104 C.3       1 <0>        -0.1496
      2 C2          0.0021   -0.0041    0.0020 C.3       1 <0>        -0.0701
      3 C3         -1.4117   -0.5257    0.0127 C.2       1 <0>        -0.1323
      4 C4         -2.0964   -0.6700    1.2283 C.2       1 <0>        -0.1284
      5 C5         -3.3792   -1.1443    1.2205 C.2       1 <0>         0.1014
      6 C6         -3.9830   -1.4773   -0.0120 C.2       1 <0>         0.5139
      7 N1         -3.2953   -1.3259   -1.1599 N.am      1 <0>        -0.5909
      8 C7         -2.0214   -0.8491   -1.1501 C.2       1 <0>         0.0930
      9 C8         -1.2783   -0.6846   -2.4508 C.3       1 <0>        -0.1202
     10 O1         -5.1271   -1.9024   -0.0367 O.2       1 <0>        -0.5536
     11 N2         -4.0851   -1.2984    2.4201 N.pl3     1 <0>        -0.7261
     12 C9         -5.4588   -1.8073    2.4015 C.3       1 <0>         0.2280
     13 C10        -5.9877   -1.8773    3.8109 C.2       1 <0>         0.0782
     14 N3         -6.6274   -0.9554    4.4693 N.2       1 <0>        -0.4945
     15 C11        -7.0531   -1.1410    5.7359 C.ar      1 <0>         0.0752
     16 C12        -7.7520   -0.2658    6.5934 C.ar      1 <0>        -0.0564
     17 C13        -8.0904   -0.6548    7.8532 C.ar      1 <0>        -0.1095
     18 C14        -7.7645   -1.9141    8.3377 C.ar      1 <0>        -0.0923
     19 C15        -7.0802   -2.7998    7.5267 C.ar      1 <0>        -0.0654
     20 C16        -6.7340   -2.4168    6.2536 C.ar      1 <0>        -0.1657
     21 S1         -5.8907   -3.1685    4.8862 S.3       1 <0>         0.1016
     22 H1          1.0039    1.9031    0.0027 H         1 <0>         0.0581
     23 H2         -0.5459    1.8868   -0.8726 H         1 <0>         0.0548
     24 H3         -0.5289    1.8773    0.9072 H         1 <0>         0.0561
     25 H4          0.5123   -0.3556   -0.8948 H         1 <0>         0.0748
     26 H5          0.5293   -0.3651    0.8851 H         1 <0>         0.0738
     27 H6         -1.6159   -0.4098    2.1599 H         1 <0>         0.1307
     28 H7         -0.7443   -1.6060   -2.6831 H         1 <0>         0.0829
     29 H8         -1.9873   -0.4644   -3.2489 H         1 <0>         0.0722
     30 H9         -0.5659    0.1354   -2.3610 H         1 <0>         0.0912
     31 H10        -3.7145   -1.5560   -2.0038 H         1 <0>         0.4167
     32 H11        -3.6646   -1.0682    3.2633 H         1 <0>         0.4061
     33 H12        -6.0857   -1.1392    1.8109 H         1 <0>         0.1020
     34 H13        -5.4713   -2.8032    1.9588 H         1 <0>         0.0974
     35 H14        -8.0206    0.7214    6.2475 H         1 <0>         0.1341
     36 H15        -8.6252    0.0331    8.4913 H         1 <0>         0.1364
     37 H16        -8.0433   -2.1996    9.3413 H         1 <0>         0.1406
     38 H17        -6.8202   -3.7831    7.8901 H         1 <0>         0.1360
@<TRIPOS>BOND
     1    1    2 1
     2    1   22 1
     3    1   23 1
     4    1   24 1
     5    2   25 1
     6    2   26 1
     7    2    3 1
     8    3    8 2
     9    3    4 1
    10    4   27 1
    11    4    5 2
    12    5    6 1
    13    5   11 1
    14    6   10 2
    15    6    7 am
    16    7   31 1
    17    7    8 1
    18    8    9 1
    19    9   28 1
    20    9   29 1
    21    9   30 1
    22   11   12 1
    23   11   32 1
    24   12   13 1
    25   12   33 1
    26   12   34 1
    27   13   21 1
    28   13   14 2
    29   14   15 1
    30   15   20 ar
    31   15   16 ar
    32   16   17 ar
    33   16   35 1
    34   17   18 ar
    35   17   36 1
    36   18   19 ar
    37   18   37 1
    38   19   20 ar
    39   19   38 1
    40   20   21 1
@<TRIPOS>MOLECULE
CHEMBL162629
   45    48     0     0     0
SMALL
USER_CHARGES

@<TRIPOS>ATOM
      1 C1         -0.0187    1.5258    0.0104 C.3       1 <0>        -0.1722
      2 C2          0.0021   -0.0041    0.0020 C.3       1 <0>         0.1349
      3 N1          0.6878   -0.4765   -1.2033 N.pl3     1 <0>        -0.5764
      4 C3         -0.0232   -0.7079   -2.3687 C.ar      1 <0>         0.4265
      5 C4          0.3083   -0.0056   -3.5390 C.ar      1 <0>        -0.2003
      6 C5         -0.3675   -0.3155   -4.7245 C.ar      1 <0>         0.0221
      7 C6         -1.3668   -1.2725   -4.6822 C.ar      1 <0>        -0.1536
      8 C7         -1.6677   -1.8889   -3.4814 C.ar      1 <0>         0.1771
      9 N2         -1.0035   -1.5984   -2.3796 N.ar      1 <0>        -0.4928
     10 C8         -2.1202   -1.6401   -5.9345 C.3       1 <0>        -0.0680
     11 S1         -1.2700   -3.0057   -6.7728 S.3       1 <0>        -0.0636
     12 C9         -2.2601   -3.3139   -8.1974 C.ar      1 <0>        -0.2028
     13 C10        -3.4039   -2.5594   -8.4501 C.ar      1 <0>         0.1387
     14 N3         -4.1195   -2.8221   -9.5308 N.ar      1 <0>        -0.5006
     15 C11        -3.7635   -3.7813  -10.3617 C.ar      1 <0>         0.2874
     16 N4         -2.6891   -4.5171  -10.1583 N.ar      1 <0>        -0.4998
     17 C12        -1.9168   -4.3146   -9.1040 C.ar      1 <0>         0.1739
     18 C13         1.3110    1.0629   -3.5239 C.2       1 <0>         0.5814
     19 O1          1.0846    2.0448   -4.2041 O.2       1 <0>        -0.5190
     20 N5          2.4424    1.0540   -2.8342 N.am      1 <0>        -0.6425
     21 C14         2.9143    0.0253   -2.0200 C.ar      1 <0>         0.0887
     22 C15         2.0649   -0.6931   -1.1924 C.ar      1 <0>         0.3818
     23 N6          2.5591   -1.6175   -0.3786 N.ar      1 <0>        -0.4730
     24 C16         3.8459   -1.9104   -0.3540 C.ar      1 <0>         0.1918
     25 C17         4.7373   -1.2590   -1.1839 C.ar      1 <0>        -0.1394
     26 C18         4.2713   -0.2804   -2.0287 C.ar      1 <0>        -0.0335
     27 C19         5.2192    0.4525   -2.9427 C.3       1 <0>        -0.1226
     28 Cl1         4.4258   -3.1303    0.7365 Cl        1 <0>        -0.0152
     29 H1          1.0039    1.9031    0.0027 H         1 <0>         0.0555
     30 H2         -0.5459    1.8868   -0.8726 H         1 <0>         0.0553
     31 H3         -0.5289    1.8773    0.9072 H         1 <0>         0.0748
     32 H4          0.5293   -0.3651    0.8851 H         1 <0>         0.0862
     33 H5         -1.0205   -0.3814    0.0098 H         1 <0>         0.0870
     34 H6         -0.1158    0.1805   -5.6502 H         1 <0>         0.1533
     35 H7         -2.4607   -2.6211   -3.4452 H         1 <0>         0.1718
     36 H8         -3.1323   -1.9485   -5.6723 H         1 <0>         0.1098
     37 H9         -2.1640   -0.7770   -6.5987 H         1 <0>         0.1076
     38 H10        -3.7018   -1.7721   -7.7735 H         1 <0>         0.1670
     39 H11        -4.3704   -3.9702  -11.2349 H         1 <0>         0.2018
     40 H12        -1.0355   -4.9186   -8.9460 H         1 <0>         0.1743
     41 H13         2.9997    1.8449   -2.9026 H         1 <0>         0.4153
     42 H14         5.7859   -1.5173   -1.1700 H         1 <0>         0.1588
     43 H15         5.6107    1.3316   -2.4308 H         1 <0>         0.0885
     44 H16         6.0436   -0.2065   -3.2151 H         1 <0>         0.0873
     45 H17         4.6889    0.7624   -3.8431 H         1 <0>         0.0768
@<TRIPOS>BOND
     1    1    2 1
     2    1   29 1
     3    1   30 1
     4    1   31 1
     5    2    3 1
     6    2   32 1
     7    2   33 1
     8    3   22 1
     9    3    4 1
    10    4    9 ar
    11    4    5 ar
    12    5    6 ar
    13    5   18 1
    14    6    7 ar
    15    6   34 1
    16    7    8 ar
    17    7   10 1
    18    8    9 ar
    19    8   35 1
    20   10   11 1
    21   10   36 1
    22   10   37 1
    23   11   12 1
    24   12   17 ar
    25   12   13 ar
    26   13   14 ar
    27   13   38 1
    28   14   15 ar
    29   15   16 ar
    30   15   39 1
    31   16   17 ar
    32   17   40 1
    33   18   19 2
    34   18   20 am
    35   20   21 1
    36   20   41 1
    37   21   26 ar
    38   21   22 ar
    39   22   23 ar
    40   23   24 ar
    41   24   25 ar
    42   24   28 1
    43   25   26 ar
    44   25   42 1
    45   26   27 1
    46   27   43 1
    47   27   44 1
    48   27   45 1
@<TRIPOS>MOLECULE
CHEMBL355918
   43    47     0     0     0
SMALL
USER_CHARGES

@<TRIPOS>ATOM
      1 C1         -0.0178    1.4608    0.0101 C.3       1 <0>         0.0569
      2 N1          0.0021   -0.0041    0.0020 N.am      1 <0>        -0.5374
      3 C2         -1.2332   -0.6430    0.0048 C.ar      1 <0>         0.1011
      4 C3         -2.2585   -0.1328    0.7981 C.ar      1 <0>        -0.0796
      5 C4         -3.4960   -0.7534    0.7680 C.ar      1 <0>        -0.1360
      6 C5         -3.6795   -1.8617   -0.0528 C.ar      1 <0>         0.1714
      7 N2         -2.6791   -2.3323   -0.7875 N.ar      1 <0>        -0.4595
      8 C6         -1.4774   -1.7767   -0.7694 C.ar      1 <0>         0.3709
      9 N3         -0.4486   -2.3762   -1.4963 N.pl3     1 <0>        -0.5523
     10 C7          0.6537   -2.8786   -0.8256 C.ar      1 <0>         0.4128
     11 C8          1.4447   -2.0242   -0.0421 C.ar      1 <0>        -0.2006
     12 C9          2.5094   -2.5684    0.6849 C.ar      1 <0>        -0.0016
     13 C10         2.7611   -3.9247    0.5678 C.ar      1 <0>        -0.1884
     14 C11         1.9622   -4.6956   -0.2565 C.ar      1 <0>         0.1474
     15 N4          0.9510   -4.1663   -0.9174 N.ar      1 <0>        -0.4920
     16 C12         1.1944   -0.5803   -0.0125 C.2       1 <0>         0.5763
     17 O1          2.1652    0.1514    0.0048 O.2       1 <0>        -0.5211
     18 C13        -0.5340   -2.4737   -2.9556 C.3       1 <0>         0.1056
     19 C14         0.5240   -3.3167   -3.6703 C.3       1 <0>        -0.1726
     20 C15         0.5631   -1.7908   -3.7746 C.3       1 <0>        -0.1992
     21 C16        -5.0052   -2.5238   -0.1072 C.ar      1 <0>        -0.0039
     22 C17        -6.0780   -2.0463    0.6516 C.ar      1 <0>        -0.1553
     23 C18        -7.2947   -2.6921    0.5709 C.ar      1 <0>         0.0999
     24 N5         -7.4521   -3.7450   -0.2082 N.ar      1 <0>        -0.4789
     25 C19        -6.4661   -4.2273   -0.9400 C.ar      1 <0>         0.0986
     26 C20        -5.2181   -3.6389   -0.9231 C.ar      1 <0>        -0.1330
     27 H1          1.0048    1.8381    0.0023 H         1 <0>         0.1075
     28 H2         -0.5450    1.8219   -0.8730 H         1 <0>         0.0719
     29 H3         -0.5280    1.8123    0.9069 H         1 <0>         0.0723
     30 H4         -2.0911    0.7305    1.4251 H         1 <0>         0.1528
     31 H5         -4.3086   -0.3820    1.3747 H         1 <0>         0.1518
     32 H6          3.1201   -1.9454    1.3215 H         1 <0>         0.1492
     33 H7          3.5748   -4.3768    1.1154 H         1 <0>         0.1500
     34 H8          2.1702   -5.7502   -0.3613 H         1 <0>         0.1692
     35 H9         -1.5428   -2.4758   -3.3684 H         1 <0>         0.1319
     36 H10         1.2836   -3.7988   -3.0548 H         1 <0>         0.1049
     37 H11         0.2113   -3.8737   -4.5536 H         1 <0>         0.1058
     38 H12         0.2761   -1.3439   -4.7265 H         1 <0>         0.1047
     39 H13         1.3484   -1.2689   -3.2277 H         1 <0>         0.0905
     40 H14        -5.9562   -1.1851    1.2918 H         1 <0>         0.1402
     41 H15        -8.1292   -2.3309    1.1536 H         1 <0>         0.1611
     42 H16        -6.6391   -5.0918   -1.5637 H         1 <0>         0.1604
     43 H17        -4.4166   -4.0365   -1.5280 H         1 <0>         0.1463
@<TRIPOS>BOND
     1    1    2 1
     2    1   27 1
     3    1   28 1
     4    1   29 1
     5    2   16 am
     6    2    3 1
     7    3    8 ar
     8    3    4 ar
     9    4    5 ar
    10    4   30 1
    11    5    6 ar
    12    5   31 1
    13    6    7 ar
    14    6   21 1
    15    7    8 ar
    16    8    9 1
    17    9   10 1
    18    9   18 1
    19   10   15 ar
    20   10   11 ar
    21   11   12 ar
    22   11   16 1
    23   12   13 ar
    24   12   32 1
    25   13   14 ar
    26   13   33 1
    27   14   15 ar
    28   14   34 1
    29   16   17 2
    30   18   20 1
    31   18   19 1
    32   18   35 1
    33   19   20 1
    34   19   36 1
    35   19   37 1
    36   20   38 1
    37   20   39 1
    38   21   26 ar
    39   21   22 ar
    40   22   23 ar
    41   22   40 1
    42   23   24 ar
    43   23   41 1
    44   24   25 ar
    45   25   26 ar
    46   25   42 1
    47   26   43 1
@<TRIPOS>MOLECULE
CHEMBL342056
   39    42     0     0     0
SMALL
USER_CHARGES

@<TRIPOS>ATOM
      1 C1         -0.0187    1.5258    0.0104 C.3       1 <0>        -0.1712
      2 C2          0.0021   -0.0041    0.0020 C.3       1 <0>         0.1365
      3 N1          0.6878   -0.4765   -1.2033 N.pl3     1 <0>        -0.5775
      4 C3         -0.0232   -0.7079   -2.3686 C.ar      1 <0>         0.4156
      5 C4          0.3086   -0.0056   -3.5388 C.ar      1 <0>        -0.2027
      6 C5         -0.3674   -0.3152   -4.7244 C.ar      1 <0>         0.0000
      7 C6         -1.3668   -1.2720   -4.6822 C.ar      1 <0>        -0.1907
      8 C7         -1.6679   -1.8884   -3.4814 C.ar      1 <0>         0.1518
      9 N2         -1.0037   -1.5982   -2.3796 N.ar      1 <0>        -0.4991
     10 C8          1.3115    1.0625   -3.5233 C.2       1 <0>         0.5780
     11 O1          1.0854    2.0444   -4.2036 O.2       1 <0>        -0.5198
     12 N3          2.4431    1.0532   -2.8344 N.am      1 <0>        -0.5387
     13 C9          2.9159    0.0267   -2.0227 C.ar      1 <0>         0.1125
     14 C10         2.0647   -0.6930   -1.1923 C.ar      1 <0>         0.3664
     15 N4          2.5560   -1.6158   -0.3790 N.ar      1 <0>        -0.4526
     16 C11         3.8517   -1.9108   -0.3538 C.ar      1 <0>         0.2084
     17 C12         4.7468   -1.2509   -1.1930 C.ar      1 <0>        -0.1000
     18 C13         4.2751   -0.2766   -2.0352 C.ar      1 <0>        -0.0824
     19 C14         4.3477   -2.9484    0.5734 C.2       1 <0>         0.2316
     20 N5          5.5977   -3.3285    0.7007 N.2       1 <0>        -0.4565
     21 C15         5.6613   -4.2867    1.6366 C.2       1 <0>        -0.0395
     22 C16         4.4138   -4.4988    2.0953 C.2       1 <0>        -0.0580
     23 O2          3.5955   -3.6578    1.4329 O.3       1 <0>        -0.1775
     24 C17         3.2843    2.2480   -2.9382 C.3       1 <0>         0.0563
     25 H1          1.0039    1.9031    0.0027 H         1 <0>         0.0544
     26 H2         -0.5459    1.8868   -0.8726 H         1 <0>         0.0549
     27 H3         -0.5289    1.8773    0.9072 H         1 <0>         0.0733
     28 H4          0.5293   -0.3651    0.8851 H         1 <0>         0.0838
     29 H5         -1.0205   -0.3814    0.0098 H         1 <0>         0.0856
     30 H6         -0.1155    0.1808   -5.6501 H         1 <0>         0.1490
     31 H7         -1.9073   -1.5348   -5.5795 H         1 <0>         0.1497
     32 H8         -2.4611   -2.6205   -3.4452 H         1 <0>         0.1687
     33 H9          5.7963   -1.5055   -1.1825 H         1 <0>         0.1634
     34 H10         4.9507    0.2510   -2.6922 H         1 <0>         0.1583
     35 H11         6.5547   -4.7976    1.9640 H         1 <0>         0.1923
     36 H12         4.1232   -5.2085    2.8558 H         1 <0>         0.2218
     37 H13         2.8069    2.9723   -3.5983 H         1 <0>         0.1080
     38 H14         3.4143    2.6880   -1.9495 H         1 <0>         0.0722
     39 H15         4.2577    1.9729   -3.3443 H         1 <0>         0.0736
@<TRIPOS>BOND
     1    1    2 1
     2    1   25 1
     3    1   26 1
     4    1   27 1
     5    2    3 1
     6    2   28 1
     7    2   29 1
     8    3   14 1
     9    3    4 1
    10    4    9 ar
    11    4    5 ar
    12    5    6 ar
    13    5   10 1
    14    6    7 ar
    15    6   30 1
    16    7    8 ar
    17    7   31 1
    18    8    9 ar
    19    8   32 1
    20   10   11 2
    21   10   12 am
    22   12   13 1
    23   12   24 1
    24   13   18 ar
    25   13   14 ar
    26   14   15 ar
    27   15   16 ar
    28   16   17 ar
    29   16   19 1
    30   17   18 ar
    31   17   33 1
    32   18   34 1
    33   19   23 1
    34   19   20 2
    35   20   21 1
    36   21   22 2
    37   21   35 1
    38   22   23 1
    39   22   36 1
    40   24   37 1
    41   24   38 1
    42   24   39 1
@<TRIPOS>MOLECULE
CHEMBL58494
   48    51     0     0     0
SMALL
USER_CHARGES

@<TRIPOS>ATOM
      1 C1          0.1707   -0.3125    0.6656 C.3       1 <0>        -0.1710
      2 C2          0.1314    0.1498   -0.7682 C.2       1 <0>         0.5264
      3 O1          0.1108    1.3355   -1.0227 O.2       1 <0>        -0.5370
      4 N1          0.1193   -0.7543   -1.7676 N.am      1 <0>        -0.5707
      5 C3          0.1993   -0.3075   -3.1605 C.3       1 <0>         0.0885
      6 C4          0.0303   -2.1190   -1.4750 C.ar      1 <0>         0.1810
      7 C5         -1.2064   -2.7308   -1.3820 C.ar      1 <0>        -0.1182
      8 C6         -1.3011   -4.0833   -1.0922 C.ar      1 <0>        -0.0880
      9 C7         -0.1642   -4.8385   -0.8925 C.ar      1 <0>        -0.1048
     10 C8          1.0878   -4.2451   -0.9815 C.ar      1 <0>         0.0662
     11 C9          1.1962   -2.8765   -1.2799 C.ar      1 <0>         0.0508
     12 N2          2.5171   -2.5750   -1.3090 N.2       1 <0>        -0.4529
     13 C10         3.2203   -3.6522   -1.0574 C.2       1 <0>         0.3241
     14 N3          2.3806   -4.7122   -0.8393 N.pl3     1 <0>        -0.4730
     15 C11         2.7789   -6.0873   -0.5282 C.3       1 <0>         0.1498
     16 C12         2.7367   -6.2971    0.9635 C.ar      1 <0>        -0.1950
     17 C13         3.8158   -5.9243    1.7462 C.ar      1 <0>         0.1491
     18 C14         3.7760   -6.1176    3.1168 C.ar      1 <0>        -0.1622
     19 C15         2.6594   -6.6826    3.7033 C.ar      1 <0>        -0.0472
     20 C16         1.5816   -7.0557    2.9228 C.ar      1 <0>        -0.1620
     21 C17         1.6166   -6.8577    1.5528 C.ar      1 <0>         0.1512
     22 F1          0.5604   -7.2169    0.7908 F         1 <0>        -0.1237
     23 F2          4.9077   -5.3724    1.1730 F         1 <0>        -0.1230
     24 C18         4.6958   -3.7113   -1.0045 C.ar      1 <0>        -0.0974
     25 C19         5.3888   -4.6560   -1.7668 C.ar      1 <0>         0.1468
     26 C20         6.7691   -4.7050   -1.7118 C.ar      1 <0>        -0.1603
     27 C21         7.4644   -3.8227   -0.9049 C.ar      1 <0>        -0.0407
     28 C22         6.7860   -2.8850   -0.1476 C.ar      1 <0>        -0.1617
     29 C23         5.4062   -2.8191   -0.1964 C.ar      1 <0>         0.1782
     30 F3          4.7456   -1.8986    0.5394 F         1 <0>        -0.1136
     31 F4          4.7113   -5.5192   -2.5548 F         1 <0>        -0.1240
     32 H1         -0.8425   -0.5257    1.0065 H         1 <0>         0.0926
     33 H2          0.7765   -1.2156    0.7398 H         1 <0>         0.0789
     34 H3          0.6063    0.4694    1.2877 H         1 <0>         0.0933
     35 H4          1.2446   -0.2476   -3.4634 H         1 <0>         0.0586
     36 H5         -0.3244   -1.0176   -3.8005 H         1 <0>         0.0695
     37 H6         -0.2629    0.6752   -3.2540 H         1 <0>         0.0822
     38 H7         -2.1045   -2.1510   -1.5358 H         1 <0>         0.1373
     39 H8         -2.2728   -4.5493   -1.0220 H         1 <0>         0.1404
     40 H9         -0.2480   -5.8913   -0.6666 H         1 <0>         0.1330
     41 H10         2.0932   -6.7826   -1.0124 H         1 <0>         0.1111
     42 H11         3.7914   -6.2633   -0.8914 H         1 <0>         0.1141
     43 H12         4.6180   -5.8271    3.7275 H         1 <0>         0.1483
     44 H13         2.6292   -6.8331    4.7724 H         1 <0>         0.1501
     45 H14         0.7098   -7.4978    3.3822 H         1 <0>         0.1493
     46 H15         7.3060   -5.4343   -2.3001 H         1 <0>         0.1515
     47 H16         8.5428   -3.8664   -0.8657 H         1 <0>         0.1519
     48 H17         7.3360   -2.1997    0.4803 H         1 <0>         0.1521
@<TRIPOS>BOND
     1    1    2 1
     2    1   32 1
     3    1   33 1
     4    1   34 1
     5    2    3 2
     6    2    4 am
     7    4    5 1
     8    4    6 1
     9    5   35 1
    10    5   36 1
    11    5   37 1
    12    6   11 ar
    13    6    7 ar
    14    7    8 ar
    15    7   38 1
    16    8    9 ar
    17    8   39 1
    18    9   10 ar
    19    9   40 1
    20   10   14 1
    21   10   11 ar
    22   11   12 1
    23   12   13 2
    24   13   14 1
    25   13   24 1
    26   14   15 1
    27   15   16 1
    28   15   41 1
    29   15   42 1
    30   16   21 ar
    31   16   17 ar
    32   17   18 ar
    33   17   23 1
    34   18   19 ar
    35   18   43 1
    36   19   20 ar
    37   19   44 1
    38   20   21 ar
    39   20   45 1
    40   21   22 1
    41   24   29 ar
    42   24   25 ar
    43   25   26 ar
    44   25   31 1
    45   26   27 ar
    46   26   46 1
    47   27   28 ar
    48   27   47 1
    49   28   29 ar
    50   28   48 1
    51   29   30 1
@<TRIPOS>MOLECULE
CHEMBL39093
   40    42     0     0     0
SMALL
USER_CHARGES

@<TRIPOS>ATOM
      1 C1         -1.5444    2.2862   -0.8782 C.3       1 <0>        -0.1518
      2 C2         -1.2403    0.8207   -0.5610 C.3       1 <0>         0.0466
      3 O1         -0.0845    0.4052   -1.2915 O.3       1 <0>        -0.3654
      4 C3          0.3559   -0.9179   -0.9792 C.3       1 <0>         0.2690
      5 N1         -0.5005   -1.8914   -1.6613 N.am      1 <0>        -0.5401
      6 C4         -1.4246   -2.6121   -0.9416 C.2       1 <0>         0.1247
      7 C5         -2.2196   -3.5187   -1.5878 C.2       1 <0>        -0.1459
      8 C6         -2.0710   -3.6903   -2.9725 C.2       1 <0>         0.5553
      9 O2         -2.7689   -4.4924   -3.5693 O.2       1 <0>        -0.4883
     10 N2         -1.1529   -2.9633   -3.6390 N.am      1 <0>        -0.6570
     11 H1         -1.0492   -3.0810   -4.5962 H         1 <0>         0.4345
     12 C7         -0.3825   -2.0717   -2.9897 C.2       1 <0>         0.7012
     13 O3          0.4362   -1.4227   -3.6116 O.2       1 <0>        -0.5179
     14 C8         -3.2400   -4.3221   -0.8233 C.3       1 <0>        -0.1005
     15 C9         -2.7687   -5.0417    0.4420 C.3       1 <0>        -0.1542
     16 C10        -3.0841   -5.8441   -0.8220 C.3       1 <0>        -0.1555
     17 S1         -1.5828   -2.3704    0.7965 S.3       1 <0>         0.0712
     18 C11        -0.0845   -3.0226    1.4557 C.ar      1 <0>        -0.1266
     19 C12         0.8639   -3.5814    0.6081 C.ar      1 <0>        -0.1257
     20 C13         2.0371   -4.0916    1.1280 C.ar      1 <0>        -0.0966
     21 C14         2.2684   -4.0469    2.4908 C.ar      1 <0>        -0.1086
     22 C15         1.3262   -3.4917    3.3374 C.ar      1 <0>        -0.0974
     23 C16         0.1536   -2.9741    2.8235 C.ar      1 <0>        -0.0856
     24 H2         -0.6928    2.9040   -0.5931 H         1 <0>         0.0667
     25 H3         -1.7311    2.3956   -1.9465 H         1 <0>         0.0635
     26 H4         -2.4260    2.6032   -0.3210 H         1 <0>         0.0754
     27 H5         -1.0535    0.7113    0.5073 H         1 <0>         0.0616
     28 H6         -2.0918    0.2029   -0.8461 H         1 <0>         0.0477
     29 H7          1.3864   -1.0455   -1.3105 H         1 <0>         0.1323
     30 H8          0.2984   -1.0752    0.0978 H         1 <0>         0.1008
     31 H9         -4.2531   -3.9199   -0.8262 H         1 <0>         0.1266
     32 H10        -1.7207   -4.9342    0.7214 H         1 <0>         0.0931
     33 H11        -3.4718   -5.1131    1.2719 H         1 <0>         0.1064
     34 H12        -3.9946   -6.4433   -0.8237 H         1 <0>         0.1025
     35 H13        -2.2435   -6.2644   -1.3741 H         1 <0>         0.0919
     36 H14         0.6837   -3.6170   -0.4562 H         1 <0>         0.1166
     37 H15         2.7746   -4.5265    0.4697 H         1 <0>         0.1300
     38 H16         3.1867   -4.4466    2.8948 H         1 <0>         0.1309
     39 H17         1.5097   -3.4590    4.4012 H         1 <0>         0.1346
     40 H18        -0.5794   -2.5360    3.4847 H         1 <0>         0.1337
@<TRIPOS>BOND
     1    1    2 1
     2    1   24 1
     3    1   25 1
     4    1   26 1
     5    2    3 1
     6    2   27 1
     7    2   28 1
     8    3    4 1
     9    4    5 1
    10    4   29 1
    11    4   30 1
    12    5   12 am
    13    5    6 1
    14    6    7 2
    15    6   17 1
    16    7    8 1
    17    7   14 1
    18    8    9 2
    19    8   10 am
    20   10   11 1
    21   10   12 am
    22   12   13 2
    23   14   16 1
    24   14   15 1
    25   14   31 1
    26   15   16 1
    27   15   32 1
    28   15   33 1
    29   16   34 1
    30   16   35 1
    31   17   18 1
    32   18   23 ar
    33   18   19 ar
    34   19   20 ar
    35   19   36 1
    36   20   21 ar
    37   20   37 1
    38   21   22 ar
    39   21   38 1
    40   22   23 ar
    41   22   39 1
    42   23   40 1
@<TRIPOS>MOLECULE
CHEMBL85110
   53    55     0     0     0
SMALL
USER_CHARGES

@<TRIPOS>ATOM
      1 C1         -0.5504    0.7844   -0.2474 C.3       1 <0>        -0.1442
      2 C2         -0.0663   -0.6632   -0.3529 C.3       1 <0>        -0.0664
      3 C3          0.8510   -0.8007   -1.5407 C.2       1 <0>        -0.1696
      4 C4          0.3264   -1.0226   -2.8231 C.2       1 <0>         0.5558
      5 O1         -0.8791   -1.1056   -2.9865 O.2       1 <0>        -0.4953
      6 N1          1.1624   -1.1430   -3.8730 N.am      1 <0>        -0.6560
      7 H1          0.8009   -1.2964   -4.7600 H         1 <0>         0.4339
      8 C5          2.4937   -1.0520   -3.7023 C.2       1 <0>         0.7034
      9 O2          3.2297   -1.1633   -4.6637 O.2       1 <0>        -0.5160
     10 N2          3.0232   -0.8391   -2.4835 N.am      1 <0>        -0.5386
     11 C6          2.2068   -0.7054   -1.3849 C.2       1 <0>         0.1182
     12 S1          2.9009   -0.4201    0.2093 S.3       1 <0>         0.0622
     13 C7          3.6920   -1.9430    0.6087 C.ar      1 <0>        -0.1264
     14 C8          3.6138   -3.0187   -0.2670 C.ar      1 <0>        -0.1224
     15 C9          4.2350   -4.2108    0.0491 C.ar      1 <0>        -0.0974
     16 C10         4.9342   -4.3346    1.2358 C.ar      1 <0>        -0.1085
     17 C11         5.0136   -3.2660    2.1100 C.ar      1 <0>        -0.0985
     18 C12         4.4000   -2.0690    1.7973 C.ar      1 <0>        -0.0862
     19 C13         4.4767   -0.7439   -2.3271 C.3       1 <0>         0.2699
     20 O3          4.9271    0.5194   -2.8204 O.3       1 <0>        -0.3560
     21 C14         4.6408    1.6179   -1.9525 C.3       1 <0>         0.0542
     22 C15         5.0541    2.9253   -2.6312 C.3       1 <0>         0.0626
     23 O4          4.2443    3.1375   -3.7893 O.3       1 <0>        -0.3732
     24 C16         4.5506    4.3385   -4.5006 C.3       1 <0>         0.1037
     25 C17         3.6413    4.4600   -5.6962 C.ar      1 <0>        -0.0930
     26 C18         4.0174    3.9136   -6.9090 C.ar      1 <0>        -0.0955
     27 C19         3.1834    4.0250   -8.0057 C.ar      1 <0>        -0.1226
     28 C20         1.9730    4.6825   -7.8896 C.ar      1 <0>        -0.1130
     29 C21         1.5964    5.2281   -6.6766 C.ar      1 <0>        -0.1241
     30 C22         2.4285    5.1130   -5.5788 C.ar      1 <0>        -0.0998
     31 H2          0.3068    1.4460   -0.1230 H         1 <0>         0.0534
     32 H3         -1.0891    1.0545   -1.1557 H         1 <0>         0.0586
     33 H4         -1.2139    0.8839    0.6117 H         1 <0>         0.0681
     34 H5          0.4724   -0.9332    0.5554 H         1 <0>         0.0930
     35 H6         -0.9235   -1.3248   -0.4773 H         1 <0>         0.0886
     36 H7          3.0676   -2.9228   -1.1938 H         1 <0>         0.1177
     37 H8          4.1743   -5.0476   -0.6311 H         1 <0>         0.1302
     38 H9          5.4191   -5.2681    1.4806 H         1 <0>         0.1308
     39 H10         5.5599   -3.3662    3.0363 H         1 <0>         0.1344
     40 H11         4.4668   -1.2332    2.4780 H         1 <0>         0.1334
     41 H12         4.7354   -0.8351   -1.2722 H         1 <0>         0.0990
     42 H13         4.9560   -1.5453   -2.8893 H         1 <0>         0.1332
     43 H14         3.5725    1.6422   -1.7373 H         1 <0>         0.0581
     44 H15         5.1962    1.5002   -1.0220 H         1 <0>         0.0775
     45 H16         4.9187    3.7541   -1.9363 H         1 <0>         0.0685
     46 H17         6.1017    2.8661   -2.9263 H         1 <0>         0.0622
     47 H18         4.4046    5.1966   -3.8445 H         1 <0>         0.0578
     48 H19         5.5877    4.3087   -4.8345 H         1 <0>         0.0593
     49 H20         4.9631    3.3999   -6.9997 H         1 <0>         0.1228
     50 H21         3.4776    3.5987   -8.9534 H         1 <0>         0.1243
     51 H22         1.3216    4.7702   -8.7466 H         1 <0>         0.1233
     52 H23         0.6509    5.7421   -6.5859 H         1 <0>         0.1237
     53 H24         2.1327    5.5360   -4.6301 H         1 <0>         0.1213
@<TRIPOS>BOND
     1    1    2 1
     2    1   31 1
     3    1   32 1
     4    1   33 1
     5    2    3 1
     6    2   34 1
     7    2   35 1
     8    3   11 2
     9    3    4 1
    10    4    5 2
    11    4    6 am
    12    6    7 1
    13    6    8 am
    14    8    9 2
    15    8   10 am
    16   10   11 1
    17   10   19 1
    18   11   12 1
    19   12   13 1
    20   13   18 ar
    21   13   14 ar
    22   14   15 ar
    23   14   36 1
    24   15   16 ar
    25   15   37 1
    26   16   17 ar
    27   16   38 1
    28   17   18 ar
    29   17   39 1
    30   18   40 1
    31   19   20 1
    32   19   41 1
    33   19   42 1
    34   20   21 1
    35   21   22 1
    36   21   43 1
    37   21   44 1
    38   22   23 1
    39   22   45 1
    40   22   46 1
    41   23   24 1
    42   24   25 1
    43   24   47 1
    44   24   48 1
    45   25   30 ar
    46   25   26 ar
    47   26   27 ar
    48   26   49 1
    49   27   28 ar
    50   27   50 1
    51   28   29 ar
    52   28   51 1
    53   29   30 ar
    54   29   52 1
    55   30   53 1
@<TRIPOS>MOLECULE
CHEMBL55445
   34    36     0     0     0
SMALL
USER_CHARGES

@<TRIPOS>ATOM
      1 C1         -0.0187    1.5242   -0.0667 C.3       1 <0>        -0.1657
      2 C2          0.0021   -0.0041    0.0020 C.3       1 <0>         0.0780
      3 N1         -1.3723   -0.5112    0.0124 N.am      1 <0>        -0.5424
      4 C3         -1.9144   -0.8312    1.2495 C.ar      1 <0>         0.1693
      5 C4         -1.0996   -1.4634    2.2049 C.ar      1 <0>        -0.0375
      6 C5         -1.6140   -1.7693    3.4666 C.ar      1 <0>        -0.0420
      7 C6         -2.9187   -1.4488    3.7729 C.ar      1 <0>        -0.0798
      8 C7         -3.7252   -0.8363    2.8296 C.ar      1 <0>        -0.0612
      9 C8         -3.2336   -0.5374    1.5665 C.ar      1 <0>         0.0765
     10 O1         -4.0746    0.0028    0.6494 O.3       1 <0>        -0.2439
     11 C9         -4.3718   -0.7180   -0.4537 C.ar      1 <0>         0.3395
     12 C10        -3.3605   -1.0840   -1.3510 C.ar      1 <0>        -0.2106
     13 C11        -3.6890   -1.8707   -2.4605 C.ar      1 <0>         0.0022
     14 C12        -5.0126   -2.2351   -2.6392 C.ar      1 <0>        -0.1824
     15 C13        -5.9605   -1.8140   -1.7247 C.ar      1 <0>         0.1558
     16 N2         -5.6248   -1.0835   -0.6794 N.ar      1 <0>        -0.4866
     17 C14        -1.9825   -0.6159   -1.1609 C.2       1 <0>         0.5726
     18 O2         -1.3517   -0.3059   -2.1529 O.2       1 <0>        -0.5047
     19 C15        -3.4692   -1.7666    5.1393 C.3       1 <0>        -0.1163
     20 C16         0.2565   -1.7936    1.8845 C.1       1 <0>         0.2553
     21 N3          1.3322   -2.0555    1.6303 N.1       1 <0>        -0.3945
     22 H1          1.0039    1.9015   -0.0745 H         1 <0>         0.0763
     23 H2         -0.5294    1.8401   -0.9764 H         1 <0>         0.0668
     24 H3         -0.5454    1.9199    0.8017 H         1 <0>         0.0611
     25 H4          0.5288   -0.3997   -0.8664 H         1 <0>         0.0970
     26 H5          0.5128   -0.3199    0.9117 H         1 <0>         0.0957
     27 H6         -0.9903   -2.2568    4.2012 H         1 <0>         0.1497
     28 H7         -4.7465   -0.5885    3.0787 H         1 <0>         0.1538
     29 H8         -2.9289   -2.1861   -3.1599 H         1 <0>         0.1533
     30 H9         -5.3019   -2.8418   -3.4845 H         1 <0>         0.1551
     31 H10        -6.9949   -2.0885   -1.8693 H         1 <0>         0.1761
     32 H11        -3.2964   -0.9220    5.8061 H         1 <0>         0.0814
     33 H12        -4.5398   -1.9572    5.0643 H         1 <0>         0.0761
     34 H13        -2.9697   -2.6506    5.5356 H         1 <0>         0.0759
@<TRIPOS>BOND
     1    1    2 1
     2    1   22 1
     3    1   23 1
     4    1   24 1
     5    2    3 1
     6    2   25 1
     7    2   26 1
     8    3   17 am
     9    3    4 1
    10    4    9 ar
    11    4    5 ar
    12    5    6 ar
    13    5   20 1
    14    6    7 ar
    15    6   27 1
    16    7    8 ar
    17    7   19 1
    18    8    9 ar
    19    8   28 1
    20    9   10 1
    21   10   11 1
    22   11   16 ar
    23   11   12 ar
    24   12   13 ar
    25   12   17 1
    26   13   14 ar
    27   13   29 1
    28   14   15 ar
    29   14   30 1
    30   15   16 ar
    31   15   31 1
    32   17   18 2
    33   19   32 1
    34   19   33 1
    35   19   34 1
    36   20   21 3
@<TRIPOS>MOLECULE
CHEMBL57
   34    37     0     0     0
SMALL
USER_CHARGES

@<TRIPOS>ATOM
      1 C1         -0.0184    1.5028    0.0103 C.3       1 <0>        -0.1170
      2 C2          0.0021   -0.0041    0.0020 C.ar      1 <0>        -0.0498
      3 C3          0.0061   -0.7057   -1.1955 C.ar      1 <0>        -0.1576
      4 C4          0.0283   -2.0849   -1.1694 C.ar      1 <0>         0.1145
      5 N1          0.0626   -2.7397   -0.0244 N.ar      1 <0>        -0.4732
      6 C5          0.0689   -2.1114    1.1426 C.ar      1 <0>         0.3651
      7 C6          0.0231   -0.7203    1.1946 C.ar      1 <0>         0.0847
      8 N2         -0.0518   -0.0308    2.4019 N.am      1 <0>        -0.6434
      9 C7          0.6012   -0.3134    3.5189 C.2       1 <0>         0.5797
     10 O1          0.4191    0.4213    4.4703 O.2       1 <0>        -0.5252
     11 C8          1.5243   -1.4365    3.7064 C.ar      1 <0>        -0.1973
     12 C9          2.6915   -1.2661    4.4602 C.ar      1 <0>        -0.0031
     13 C10         3.5187   -2.3596    4.6485 C.ar      1 <0>        -0.1890
     14 C11         3.1697   -3.5793    4.0971 C.ar      1 <0>         0.1480
     15 N3          2.0727   -3.7148    3.3781 N.ar      1 <0>        -0.4947
     16 C12         1.2586   -2.6951    3.1469 C.ar      1 <0>         0.4141
     17 N4          0.1549   -2.8635    2.3146 N.pl3     1 <0>        -0.5559
     18 C13        -0.8987   -3.8222    2.6566 C.3       1 <0>         0.1033
     19 C14        -0.8469   -4.4633    4.0449 C.3       1 <0>        -0.1836
     20 C15        -0.4962   -5.2907    2.8065 C.3       1 <0>        -0.1801
     21 H1          1.0042    1.8801    0.0026 H         1 <0>         0.0838
     22 H2         -0.5455    1.8639   -0.8728 H         1 <0>         0.0825
     23 H3         -0.5286    1.8543    0.9071 H         1 <0>         0.0690
     24 H4         -0.0083   -0.1777   -2.1375 H         1 <0>         0.1473
     25 H5          0.0178   -2.6357   -2.0983 H         1 <0>         0.1670
     26 H6         -0.6440    0.7371    2.4274 H         1 <0>         0.4115
     27 H7          2.9407   -0.3046    4.8842 H         1 <0>         0.1493
     28 H8          4.4289   -2.2615    5.2215 H         1 <0>         0.1495
     29 H9          3.8074   -4.4359    4.2580 H         1 <0>         0.1684
     30 H10        -1.8818   -3.6102    2.2362 H         1 <0>         0.1278
     31 H11        -0.0288   -4.1719    4.7036 H         1 <0>         0.0916
     32 H12        -1.7960   -4.6732    4.5381 H         1 <0>         0.1036
     33 H13        -1.2145   -6.0448    2.4851 H         1 <0>         0.0972
     34 H14         0.5526   -5.5435    2.6506 H         1 <0>         0.1120
@<TRIPOS>BOND
     1    1    2 1
     2    1   21 1
     3    1   22 1
     4    1   23 1
     5    2    7 ar
     6    2    3 ar
     7    3    4 ar
     8    3   24 1
     9    4    5 ar
    10    4   25 1
    11    5    6 ar
    12    6   17 1
    13    6    7 ar
    14    7    8 1
    15    8    9 am
    16    8   26 1
    17    9   10 2
    18    9   11 1
    19   11   16 ar
    20   11   12 ar
    21   12   13 ar
    22   12   27 1
    23   13   14 ar
    24   13   28 1
    25   14   15 ar
    26   14   29 1
    27   15   16 ar
    28   16   17 1
    29   17   18 1
    30   18   20 1
    31   18   19 1
    32   18   30 1
    33   19   20 1
    34   19   31 1
    35   19   32 1
    36   20   33 1
    37   20   34 1
@<TRIPOS>MOLECULE
CHEMBL268871
   38    40     0     0     0
SMALL
USER_CHARGES

@<TRIPOS>ATOM
      1 C1         -0.0187    1.5258    0.0104 C.3       1 <0>        -0.1498
      2 C2          0.0021   -0.0041    0.0020 C.3       1 <0>        -0.0704
      3 C3         -1.4117   -0.5257    0.0127 C.2       1 <0>        -0.1342
      4 C4         -2.0964   -0.6700    1.2283 C.2       1 <0>        -0.1213
      5 C5         -3.3792   -1.1443    1.2205 C.2       1 <0>         0.0983
      6 C6         -3.9830   -1.4773   -0.0120 C.2       1 <0>         0.5145
      7 N1         -3.2953   -1.3259   -1.1599 N.am      1 <0>        -0.5901
      8 C7         -2.0214   -0.8491   -1.1501 C.2       1 <0>         0.0971
      9 C8         -1.2783   -0.6846   -2.4508 C.3       1 <0>        -0.1211
     10 O1         -5.1271   -1.9024   -0.0367 O.2       1 <0>        -0.5547
     11 N2         -4.0851   -1.2984    2.4201 N.pl3     1 <0>        -0.7291
     12 C9         -5.4588   -1.8073    2.4015 C.3       1 <0>         0.2333
     13 C10        -5.9877   -1.8773    3.8109 C.2       1 <0>         0.2441
     14 N3         -6.6211   -0.9174    4.4148 N.2       1 <0>        -0.4440
     15 C11        -6.9483   -1.3294    5.6696 C.ar      1 <0>         0.0379
     16 C12        -7.6177   -0.7309    6.7400 C.ar      1 <0>         0.0232
     17 C13        -7.7941   -1.4314    7.9133 C.ar      1 <0>        -0.0984
     18 C14        -7.3110   -2.7257    8.0378 C.ar      1 <0>        -0.0685
     19 C15        -6.6475   -3.3290    6.9889 C.ar      1 <0>        -0.0105
     20 C16        -6.4618   -2.6383    5.7995 C.ar      1 <0>         0.0308
     21 O2         -5.8768   -2.9427    4.6200 O.3       1 <0>        -0.1923
     22 Cl1        -6.0464   -4.9489    7.1568 Cl        1 <0>        -0.0375
     23 Cl2        -8.2243    0.8890    6.5924 Cl        1 <0>        -0.0300
     24 H1          1.0039    1.9031    0.0027 H         1 <0>         0.0584
     25 H2         -0.5459    1.8868   -0.8726 H         1 <0>         0.0550
     26 H3         -0.5289    1.8773    0.9072 H         1 <0>         0.0563
     27 H4          0.5123   -0.3556   -0.8948 H         1 <0>         0.0752
     28 H5          0.5293   -0.3651    0.8851 H         1 <0>         0.0741
     29 H6         -1.6159   -0.4098    2.1599 H         1 <0>         0.1319
     30 H7         -0.7443   -1.6060   -2.6831 H         1 <0>         0.0837
     31 H8         -1.9873   -0.4644   -3.2489 H         1 <0>         0.0730
     32 H9         -0.5659    0.1354   -2.3610 H         1 <0>         0.0919
     33 H10        -3.7145   -1.5560   -2.0038 H         1 <0>         0.4176
     34 H11        -3.6646   -1.0682    3.2633 H         1 <0>         0.4079
     35 H12        -6.0857   -1.1392    1.8109 H         1 <0>         0.1184
     36 H13        -5.4713   -2.8032    1.9588 H         1 <0>         0.1041
     37 H14        -8.3114   -0.9697    8.7413 H         1 <0>         0.1611
     38 H15        -7.4548   -3.2650    8.9624 H         1 <0>         0.1639
@<TRIPOS>BOND
     1    1    2 1
     2    1   24 1
     3    1   25 1
     4    1   26 1
     5    2   27 1
     6    2   28 1
     7    2    3 1
     8    3    8 2
     9    3    4 1
    10    4   29 1
    11    4    5 2
    12    5    6 1
    13    5   11 1
    14    6   10 2
    15    6    7 am
    16    7   33 1
    17    7    8 1
    18    8    9 1
    19    9   30 1
    20    9   31 1
    21    9   32 1
    22   11   12 1
    23   11   34 1
    24   12   13 1
    25   12   35 1
    26   12   36 1
    27   13   21 1
    28   13   14 2
    29   14   15 1
    30   15   20 ar
    31   15   16 ar
    32   16   17 ar
    33   16   23 1
    34   17   18 ar
    35   17   37 1
    36   18   19 ar
    37   18   38 1
    38   19   20 ar
    39   19   22 1
    40   20   21 1
@<TRIPOS>MOLECULE
CHEMBL58596
   40    41     0     0     0
SMALL
USER_CHARGES

@<TRIPOS>ATOM
      1 C1          0.2611    1.0484    0.2852 C.3       1 <0>        -0.1464
      2 C2          0.4963   -0.4580    0.1575 C.3       1 <0>         0.0135
      3 C3         -0.8366   -1.1960    0.2975 C.3       1 <0>        -0.1459
      4 C4          1.0845   -0.7529   -1.1592 C.1       1 <0>        -0.1241
      5 C5          1.5536   -0.9880   -2.2094 C.1       1 <0>        -0.1863
      6 C6          2.1418   -1.2829   -3.5262 C.3       1 <0>         0.3574
      7 C7          2.3684   -2.7664   -3.6398 C.ar      1 <0>        -0.1417
      8 C8          1.3546   -3.5852   -3.1474 C.ar      1 <0>        -0.0498
      9 C9          1.4550   -4.9585   -3.2163 C.ar      1 <0>        -0.0636
     10 C10         2.5743   -5.5425   -3.7840 C.ar      1 <0>        -0.0651
     11 C11         3.5856   -4.7427   -4.2694 C.ar      1 <0>        -0.1409
     12 C12         3.4906   -3.3519   -4.1914 C.ar      1 <0>         0.2003
     13 N1          4.5885   -2.6207   -4.6710 N.pl3     1 <0>        -1.0551
     14 S1          4.4003   -0.9853   -4.9168 S.o2      1 <0>         2.7772
     15 O1          3.6778   -0.8227   -6.1295 O.2       1 <0>        -0.9481
     16 O2          5.6627   -0.3767   -4.6816 O.2       1 <0>        -0.9585
     17 N2          3.3872   -0.5243   -3.6724 N.pl3     1 <0>        -1.1018
     18 Cl1         0.1785   -5.9550   -2.5909 Cl        1 <0>        -0.0594
     19 C13         1.1622   -0.8460   -4.6172 C.3       1 <0>        -0.1150
     20 C14        -0.1528   -1.6116   -4.4582 C.3       1 <0>        -0.1560
     21 C15         0.8965    0.6556   -4.4925 C.3       1 <0>        -0.1414
     22 H1          1.2107    1.5742    0.1855 H         1 <0>         0.0603
     23 H2         -0.4205    1.3775   -0.4991 H         1 <0>         0.0592
     24 H3         -0.1745    1.2668    1.2603 H         1 <0>         0.0677
     25 H4          1.1779   -0.7871    0.9419 H         1 <0>         0.0962
     26 H5         -1.5182   -0.8669   -0.4869 H         1 <0>         0.0594
     27 H6         -0.6690   -2.2692    0.2065 H         1 <0>         0.0600
     28 H7         -1.2722   -0.9776    1.2725 H         1 <0>         0.0680
     29 H8          0.4771   -3.1376   -2.7048 H         1 <0>         0.1473
     30 H9          2.6544   -6.6177   -3.8456 H         1 <0>         0.1447
     31 H10         4.4596   -5.1954   -4.7138 H         1 <0>         0.1438
     32 H11         5.4350   -3.0573   -4.8548 H         1 <0>         0.4343
     33 H12         3.6113    0.2078   -3.0769 H         1 <0>         0.4318
     34 H13         1.5906   -1.0591   -5.5966 H         1 <0>         0.1065
     35 H14        -0.5812   -1.3986   -3.4788 H         1 <0>         0.0605
     36 H15        -0.8507   -1.3004   -5.2355 H         1 <0>         0.0670
     37 H16         0.0365   -2.6814   -4.5471 H         1 <0>         0.0658
     38 H17         0.3824    0.8567   -3.5526 H         1 <0>         0.0579
     39 H18         1.8435    1.1950   -4.5114 H         1 <0>         0.0566
     40 H19         0.2742    0.9848   -5.3247 H         1 <0>         0.0637
@<TRIPOS>BOND
     1    1    2 1
     2    1   22 1
     3    1   23 1
     4    1   24 1
     5    2    3 1
     6    2    4 1
     7    2   25 1
     8    3   26 1
     9    3   27 1
    10    3   28 1
    11    4    5 3
    12    5    6 1
    13    6   17 1
    14    6    7 1
    15    6   19 1
    16    7   12 ar
    17    7    8 ar
    18    8    9 ar
    19    8   29 1
    20    9   10 ar
    21    9   18 1
    22   10   11 ar
    23   10   30 1
    24   11   12 ar
    25   11   31 1
    26   12   13 1
    27   13   14 1
    28   13   32 1
    29   14   15 2
    30   14   16 2
    31   14   17 1
    32   17   33 1
    33   19   20 1
    34   19   21 1
    35   19   34 1
    36   20   35 1
    37   20   36 1
    38   20   37 1
    39   21   38 1
    40   21   39 1
    41   21   40 1
@<TRIPOS>MOLECULE
CHEMBL58596__1
   40    41     0     0     0
SMALL
USER_CHARGES

@<TRIPOS>ATOM
      1 C1          0.5096    1.8092    0.2796 C.3       1 <0>        -0.1455
      2 C2          0.5292    0.2829    0.3842 C.3       1 <0>         0.0117
      3 C3         -0.8891   -0.2288    0.6437 C.3       1 <0>        -0.1448
      4 C4          1.0344   -0.2887   -0.8747 C.1       1 <0>        -0.1063
      5 C5          1.4374   -0.7446   -1.8787 C.1       1 <0>        -0.2196
      6 C6          1.9426   -1.3163   -3.1375 C.3       1 <0>         0.3583
      7 C7          1.9572   -2.8168   -3.0225 C.ar      1 <0>        -0.1331
      8 C8          2.9979   -3.3689   -2.2790 C.ar      1 <0>        -0.0556
      9 C9          3.0959   -4.7322   -2.0985 C.ar      1 <0>        -0.0595
     10 C10         2.1497   -5.5736   -2.6577 C.ar      1 <0>        -0.0671
     11 C11         1.1190   -5.0392   -3.3994 C.ar      1 <0>        -0.1393
     12 C12         1.0236   -3.6596   -3.5920 C.ar      1 <0>         0.2002
     13 N1         -0.0341   -3.2109   -4.3984 N.pl3     1 <0>        -1.0545
     14 S1         -0.3993   -1.5871   -4.3887 S.o2      1 <0>         2.7732
     15 O1         -1.1144   -1.3241   -3.1893 O.2       1 <0>        -0.9447
     16 O2         -0.9039   -1.2619   -5.6767 O.2       1 <0>        -0.9615
     17 N2          1.0958   -0.8584   -4.2425 N.pl3     1 <0>        -1.0983
     18 Cl1         4.4058   -5.3933   -1.1709 Cl        1 <0>        -0.0594
     19 C13         3.3722   -0.8229   -3.3690 C.3       1 <0>        -0.0862
     20 C14         3.9127   -1.4180   -4.6708 C.3       1 <0>        -0.1522
     21 C15         3.3753    0.7040   -3.4664 C.3       1 <0>        -0.1506
     22 H1          1.5201    2.1738    0.0947 H         1 <0>         0.0613
     23 H2         -0.1407    2.1087   -0.5423 H         1 <0>         0.0589
     24 H3          0.1355    2.2325    1.2118 H         1 <0>         0.0665
     25 H4          1.1796   -0.0166    1.2061 H         1 <0>         0.0958
     26 H5         -1.5395    0.0708   -0.1782 H         1 <0>         0.0596
     27 H6         -0.8752   -1.3161    0.7182 H         1 <0>         0.0587
     28 H7         -1.2632    0.1945    1.5759 H         1 <0>         0.0669
     29 H8          3.7393   -2.7192   -1.8376 H         1 <0>         0.1455
     30 H9          2.2191   -6.6417   -2.5138 H         1 <0>         0.1443
     31 H10         0.3786   -5.6931   -3.8360 H         1 <0>         0.1432
     32 H11        -0.5389   -3.8312   -4.9473 H         1 <0>         0.4335
     33 H12         1.3886   -0.1674   -4.8570 H         1 <0>         0.4302
     34 H13         4.0035   -1.1352   -2.5371 H         1 <0>         0.0936
     35 H14         3.2813   -1.1057   -5.5027 H         1 <0>         0.0603
     36 H15         4.9312   -1.0665   -4.8357 H         1 <0>         0.0664
     37 H16         3.9105   -2.5058   -4.6015 H         1 <0>         0.0626
     38 H17         2.8158    1.0129   -4.3493 H         1 <0>         0.0571
     39 H18         2.9101    1.1258   -2.5754 H         1 <0>         0.0638
     40 H19         4.4023    1.0611   -3.5437 H         1 <0>         0.0664
@<TRIPOS>BOND
     1    1    2 1
     2    1   22 1
     3    1   23 1
     4    1   24 1
     5    2    3 1
     6    2    4 1
     7    2   25 1
     8    3   26 1
     9    3   27 1
    10    3   28 1
    11    4    5 3
    12    5    6 1
    13    6   17 1
    14    6    7 1
    15    6   19 1
    16    7   12 ar
    17    7    8 ar
    18    8    9 ar
    19    8   29 1
    20    9   10 ar
    21    9   18 1
    22   10   11 ar
    23   10   30 1
    24   11   12 ar
    25   11   31 1
    26   12   13 1
    27   13   14 1
    28   13   32 1
    29   14   15 2
    30   14   16 2
    31   14   17 1
    32   17   33 1
    33   19   20 1
    34   19   21 1
    35   19   34 1
    36   20   35 1
    37   20   36 1
    38   20   37 1
    39   21   38 1
    40   21   39 1
    41   21   40 1
@<TRIPOS>MOLECULE
CHEMBL440551
   74    75     0     0     0
SMALL
USER_CHARGES

@<TRIPOS>ATOM
      1 C1         -0.0187    1.5258    0.0104 C.3       1 <0>        -0.1542
      2 C2          0.0021   -0.0041    0.0020 C.3       1 <0>        -0.1264
      3 C3         -1.4333   -0.5336    0.0129 C.3       1 <0>        -0.1156
      4 C4         -1.4126   -2.0635    0.0045 C.3       1 <0>        -0.0930
      5 C5         -2.8264   -2.5851    0.0152 C.2       1 <0>        -0.1572
      6 C6         -3.2245   -3.4173   -0.9149 C.2       1 <0>        -0.1541
      7 C7         -4.6383   -3.9389   -0.9042 C.3       1 <0>        -0.0636
      8 C8         -5.2905   -3.6497   -2.2316 C.2       1 <0>        -0.1534
      9 C9         -5.8228   -4.6247   -2.9261 C.2       1 <0>        -0.1579
     10 C10        -6.4749   -4.3355   -4.2536 C.3       1 <0>        -0.0920
     11 C11        -5.8438   -5.2155   -5.3344 C.3       1 <0>        -0.1155
     12 C12        -6.5060   -4.9219   -6.6820 C.3       1 <0>        -0.1205
     13 C13        -5.8749   -5.8019   -7.7628 C.3       1 <0>        -0.1206
     14 C14        -6.5370   -5.5083   -9.1105 C.3       1 <0>        -0.1197
     15 C15        -5.9059   -6.3884  -10.1913 C.3       1 <0>        -0.1109
     16 C16        -6.5680   -6.0948  -11.5390 C.3       1 <0>        -0.1128
     17 C17        -5.9464   -6.9616  -12.6036 C.2       1 <0>         0.4605
     18 O1         -5.0643   -7.7348  -12.3140 O.2       1 <0>        -0.5039
     19 O2         -6.3727   -6.8746  -13.8734 O.3       1 <0>        -0.3453
     20 C18        -5.7388   -7.7259  -14.8303 C.3       1 <0>         0.0515
     21 C19        -6.3528   -7.4869  -16.2112 C.3       1 <0>         0.1029
     22 C20        -5.7408   -8.4273  -17.2242 C.2       1 <0>        -0.1609
     23 C21        -4.8536   -7.7605  -17.9248 C.2       1 <0>        -0.1755
     24 C22        -4.8211   -6.3358  -17.4205 C.3       1 <0>         0.3262
     25 O3         -6.0389   -6.1588  -16.6719 O.3       1 <0>        -0.3435
     26 N1         -4.7799   -5.4010  -18.5478 N.am      1 <0>        -0.5328
     27 C23        -5.7795   -4.4791  -18.7006 C.2       1 <0>         0.1747
     28 C24        -5.7412   -3.6174  -19.7394 C.2       1 <0>        -0.2617
     29 C25        -4.6617   -3.6869  -20.6527 C.2       1 <0>         0.5526
     30 O4         -4.6052   -2.9200  -21.5970 O.2       1 <0>        -0.5068
     31 N2         -3.6964   -4.6099  -20.4670 N.am      1 <0>        -0.6566
     32 H1         -2.9536   -4.6638  -21.0885 H         1 <0>         0.4334
     33 C26        -3.7568   -5.4535  -19.4199 C.2       1 <0>         0.7034
     34 O5         -2.8766   -6.2773  -19.2624 O.2       1 <0>        -0.5365
     35 C27        -6.8332   -2.5954  -19.9243 C.3       1 <0>        -0.0803
     36 H2          1.0039    1.9031    0.0027 H         1 <0>         0.0539
     37 H3         -0.5459    1.8868   -0.8726 H         1 <0>         0.0535
     38 H4         -0.5289    1.8773    0.9072 H         1 <0>         0.0537
     39 H5          0.5123   -0.3556   -0.8948 H         1 <0>         0.0607
     40 H6          0.5293   -0.3651    0.8851 H         1 <0>         0.0612
     41 H7         -1.9435   -0.1821    0.9097 H         1 <0>         0.0622
     42 H8         -1.9605   -0.1726   -0.8702 H         1 <0>         0.0619
     43 H9         -0.9024   -2.4150   -0.8923 H         1 <0>         0.0649
     44 H10        -0.8854   -2.4246    0.8875 H         1 <0>         0.0705
     45 H11        -3.5113   -2.2728    0.7896 H         1 <0>         0.1078
     46 H12        -2.5396   -3.7296   -1.6893 H         1 <0>         0.1078
     47 H13        -4.6273   -5.0151   -0.7316 H         1 <0>         0.0740
     48 H14        -5.2003   -3.4492   -0.1089 H         1 <0>         0.0740
     49 H15        -5.3191   -2.6387   -2.6103 H         1 <0>         0.1078
     50 H16        -5.7941   -5.6357   -2.5474 H         1 <0>         0.1076
     51 H17        -7.5418   -4.5490   -4.1884 H         1 <0>         0.0703
     52 H18        -6.3294   -3.2858   -4.5089 H         1 <0>         0.0648
     53 H19        -4.7769   -5.0020   -5.3995 H         1 <0>         0.0621
     54 H20        -5.9894   -6.2651   -5.0790 H         1 <0>         0.0624
     55 H21        -7.5729   -5.1354   -6.6169 H         1 <0>         0.0621
     56 H22        -6.3604   -3.8723   -6.9374 H         1 <0>         0.0617
     57 H23        -4.8080   -5.5884   -7.8280 H         1 <0>         0.0628
     58 H24        -6.0204   -6.8516   -7.5075 H         1 <0>         0.0630
     59 H25        -7.6039   -5.7218   -9.0453 H         1 <0>         0.0653
     60 H26        -6.3914   -4.4587   -9.3658 H         1 <0>         0.0651
     61 H27        -4.8390   -6.1749  -10.2565 H         1 <0>         0.0722
     62 H28        -6.0514   -7.4380   -9.9360 H         1 <0>         0.0724
     63 H29        -7.6349   -6.3083  -11.4738 H         1 <0>         0.1078
     64 H30        -6.4225   -5.0451  -11.7943 H         1 <0>         0.1077
     65 H31        -4.6721   -7.5041  -14.8636 H         1 <0>         0.0750
     66 H32        -5.8846   -8.7672  -14.5431 H         1 <0>         0.0891
     67 H33        -7.4331   -7.6260  -16.1713 H         1 <0>         0.1276
     68 H34        -5.9909   -9.4704  -17.3499 H         1 <0>         0.1653
     69 H35        -4.2493   -8.1615  -18.7250 H         1 <0>         0.1648
     70 H36        -3.9566   -6.1850  -16.7740 H         1 <0>         0.1182
     71 H37        -6.5953   -4.4412  -17.9939 H         1 <0>         0.1849
     72 H38        -6.5680   -1.6804  -19.3947 H         1 <0>         0.0713
     73 H39        -6.9525   -2.3792  -20.9860 H         1 <0>         0.0773
     74 H40        -7.7690   -2.9876  -19.5260 H         1 <0>         0.0712
@<TRIPOS>BOND
     1    1    2 1
     2    1   36 1
     3    1   37 1
     4    1   38 1
     5    2    3 1
     6    2   39 1
     7    2   40 1
     8    3    4 1
     9    3   41 1
    10    3   42 1
    11    4    5 1
    12    4   43 1
    13    4   44 1
    14    5    6 2
    15    5   45 1
    16    6    7 1
    17    6   46 1
    18    7    8 1
    19    7   47 1
    20    7   48 1
    21    8    9 2
    22    8   49 1
    23    9   10 1
    24    9   50 1
    25   10   11 1
    26   10   51 1
    27   10   52 1
    28   11   12 1
    29   11   53 1
    30   11   54 1
    31   12   13 1
    32   12   55 1
    33   12   56 1
    34   13   14 1
    35   13   57 1
    36   13   58 1
    37   14   15 1
    38   14   59 1
    39   14   60 1
    40   15   16 1
    41   15   61 1
    42   15   62 1
    43   16   17 1
    44   16   63 1
    45   16   64 1
    46   17   18 2
    47   17   19 1
    48   19   20 1
    49   20   21 1
    50   20   65 1
    51   20   66 1
    52   21   25 1
    53   21   22 1
    54   21   67 1
    55   22   23 2
    56   22   68 1
    57   23   24 1
    58   23   69 1
    59   24   25 1
    60   24   26 1
    61   24   70 1
    62   26   33 am
    63   26   27 1
    64   27   28 2
    65   27   71 1
    66   28   29 1
    67   28   35 1
    68   29   30 2
    69   29   31 am
    70   31   32 1
    71   31   33 am
    72   33   34 2
    73   35   72 1
    74   35   73 1
    75   35   74 1
@<TRIPOS>MOLECULE
CHEMBL440551__1
   74    75     0     0     0
SMALL
USER_CHARGES

@<TRIPOS>ATOM
      1 C1         -0.6640    1.9042    0.0933 C.3       1 <0>        -0.1541
      2 C2         -0.5891    0.3760    0.0943 C.3       1 <0>        -0.1265
      3 C3         -2.0049   -0.2040    0.0836 C.3       1 <0>        -0.1156
      4 C4         -1.9300   -1.7322    0.0845 C.3       1 <0>        -0.0929
      5 C5         -3.3244   -2.3035    0.0741 C.2       1 <0>        -0.1575
      6 C6         -3.6768   -3.1541   -0.8578 C.2       1 <0>        -0.1538
      7 C7         -5.0713   -3.7254   -0.8682 C.3       1 <0>        -0.0634
      8 C8         -5.7101   -3.4665   -2.2083 C.2       1 <0>        -0.1538
      9 C9         -6.1955   -4.4633   -2.9061 C.2       1 <0>        -0.1574
     10 C10        -6.8344   -4.2043   -4.2462 C.3       1 <0>        -0.0920
     11 C11        -6.1539   -5.0672   -5.3109 C.3       1 <0>        -0.1154
     12 C12        -6.8025   -4.8043   -6.6714 C.3       1 <0>        -0.1204
     13 C13        -6.1221   -5.6671   -7.7360 C.3       1 <0>        -0.1202
     14 C14        -6.7707   -5.4042   -9.0966 C.3       1 <0>        -0.1194
     15 C15        -6.0903   -6.2671  -10.1612 C.3       1 <0>        -0.1092
     16 C16        -6.7389   -6.0042  -11.5217 C.3       1 <0>        -0.1126
     17 C17        -6.0687   -6.8540  -12.5704 C.2       1 <0>         0.4602
     18 O1         -5.1650   -7.5940  -12.2612 O.2       1 <0>        -0.5095
     19 O2         -6.4757   -6.7889  -13.8478 O.3       1 <0>        -0.3303
     20 C18        -5.7957   -7.6222  -14.7886 C.3       1 <0>         0.0580
     21 C19        -6.3936   -7.4124  -16.1813 C.3       1 <0>         0.0812
     22 C20        -5.7117   -8.3155  -17.1835 C.2       1 <0>        -0.1341
     23 C21        -4.8476   -7.5998  -17.8646 C.2       1 <0>        -0.2015
     24 C22        -4.9020   -6.1770  -17.3571 C.3       1 <0>         0.3124
     25 O3         -6.1424   -6.0680  -16.6330 O.3       1 <0>        -0.2971
     26 N1         -3.7705   -5.9148  -16.4643 N.am      1 <0>        -0.5493
     27 C23        -2.5461   -6.4578  -16.7445 C.2       1 <0>         0.1639
     28 C24        -1.5032   -6.2158  -15.9219 C.2       1 <0>        -0.2562
     29 C25        -1.7003   -5.4010  -14.7810 C.2       1 <0>         0.5525
     30 O4         -0.7747   -5.1682  -14.0247 O.2       1 <0>        -0.5088
     31 N2         -2.9224   -4.8846  -14.5400 N.am      1 <0>        -0.6625
     32 H1         -3.0654   -4.3254  -13.7604 H         1 <0>         0.4290
     33 C26        -3.9435   -5.1379  -15.3796 C.2       1 <0>         0.6848
     34 O5         -5.0388   -4.6615  -15.1522 O.2       1 <0>        -0.4989
     35 C27        -0.1474   -6.8055  -16.2139 C.3       1 <0>        -0.0810
     36 H2          0.3446    2.3174    0.1009 H         1 <0>         0.0539
     37 H3         -1.1882    2.2417   -0.8008 H         1 <0>         0.0535
     38 H4         -1.2017    2.2421    0.9792 H         1 <0>         0.0536
     39 H5         -0.0513    0.0380   -0.7916 H         1 <0>         0.0608
     40 H6         -0.0649    0.0385    0.9883 H         1 <0>         0.0611
     41 H7         -2.5426    0.1339    0.9694 H         1 <0>         0.0622
     42 H8         -2.5291    0.1335   -0.8105 H         1 <0>         0.0620
     43 H9         -1.3922   -2.0701   -0.8013 H         1 <0>         0.0650
     44 H10        -1.4058   -2.0697    0.9786 H         1 <0>         0.0704
     45 H11        -4.0333   -2.0115    0.8348 H         1 <0>         0.1077
     46 H12        -2.9679   -3.4460   -1.6185 H         1 <0>         0.1079
     47 H13        -5.0252   -4.7996   -0.6892 H         1 <0>         0.0739
     48 H14        -5.6639   -3.2517   -0.0856 H         1 <0>         0.0739
     49 H15        -5.7679   -2.4591   -2.5934 H         1 <0>         0.1078
     50 H16        -6.1378   -5.4706   -2.5210 H         1 <0>         0.1076
     51 H17        -7.8940   -4.4551   -4.1981 H         1 <0>         0.0703
     52 H18        -6.7215   -3.1516   -4.5052 H         1 <0>         0.0649
     53 H19        -5.0943   -4.8164   -5.3590 H         1 <0>         0.0622
     54 H20        -6.2667   -6.1199   -5.0519 H         1 <0>         0.0623
     55 H21        -7.8622   -5.0551   -6.6233 H         1 <0>         0.0620
     56 H22        -6.6897   -3.7515   -6.9304 H         1 <0>         0.0618
     57 H23        -5.0624   -5.4163   -7.7842 H         1 <0>         0.0628
     58 H24        -6.2349   -6.7199   -7.4771 H         1 <0>         0.0626
     59 H25        -7.8304   -5.6550   -9.0484 H         1 <0>         0.0650
     60 H26        -6.6579   -4.3515   -9.3555 H         1 <0>         0.0653
     61 H27        -5.0306   -6.0163  -10.2093 H         1 <0>         0.0710
     62 H28        -6.2031   -7.3198   -9.9022 H         1 <0>         0.0714
     63 H29        -7.7986   -6.2550  -11.4736 H         1 <0>         0.1063
     64 H30        -6.6261   -4.9514  -11.7807 H         1 <0>         0.1081
     65 H31        -4.7371   -7.3629  -14.8050 H         1 <0>         0.0622
     66 H32        -5.9095   -8.6665  -14.4979 H         1 <0>         0.0803
     67 H33        -7.4655   -7.6094  -16.1636 H         1 <0>         0.1283
     68 H34        -5.9027   -9.3701  -17.3162 H         1 <0>         0.1650
     69 H35        -4.2071   -7.9652  -18.6537 H         1 <0>         0.1666
     70 H36        -4.8919   -5.4783  -18.1936 H         1 <0>         0.1351
     71 H37        -2.4147   -7.0773  -17.6193 H         1 <0>         0.1775
     72 H38         0.4222   -6.1159  -16.8368 H         1 <0>         0.0718
     73 H39         0.3849   -6.9739  -15.2777 H         1 <0>         0.0776
     74 H40        -0.2688   -7.7533  -16.7383 H         1 <0>         0.0701
@<TRIPOS>BOND
     1    1    2 1
     2    1   36 1
     3    1   37 1
     4    1   38 1
     5    2    3 1
     6    2   39 1
     7    2   40 1
     8    3    4 1
     9    3   41 1
    10    3   42 1
    11    4    5 1
    12    4   43 1
    13    4   44 1
    14    5    6 2
    15    5   45 1
    16    6    7 1
    17    6   46 1
    18    7    8 1
    19    7   47 1
    20    7   48 1
    21    8    9 2
    22    8   49 1
    23    9   10 1
    24    9   50 1
    25   10   11 1
    26   10   51 1
    27   10   52 1
    28   11   12 1
    29   11   53 1
    30   11   54 1
    31   12   13 1
    32   12   55 1
    33   12   56 1
    34   13   14 1
    35   13   57 1
    36   13   58 1
    37   14   15 1
    38   14   59 1
    39   14   60 1
    40   15   16 1
    41   15   61 1
    42   15   62 1
    43   16   17 1
    44   16   63 1
    45   16   64 1
    46   17   18 2
    47   17   19 1
    48   19   20 1
    49   20   21 1
    50   20   65 1
    51   20   66 1
    52   21   25 1
    53   21   22 1
    54   21   67 1
    55   22   23 2
    56   22   68 1
    57   23   24 1
    58   23   69 1
    59   24   25 1
    60   24   26 1
    61   24   70 1
    62   26   33 am
    63   26   27 1
    64   27   28 2
    65   27   71 1
    66   28   29 1
    67   28   35 1
    68   29   30 2
    69   29   31 am
    70   31   32 1
    71   31   33 am
    72   33   34 2
    73   35   72 1
    74   35   73 1
    75   35   74 1
@<TRIPOS>MOLECULE
CHEMBL440551__2
   74    75     0     0     0
SMALL
USER_CHARGES

@<TRIPOS>ATOM
      1 C1         -0.0187    1.5258    0.0104 C.3       1 <0>        -0.1542
      2 C2          0.0021   -0.0041    0.0020 C.3       1 <0>        -0.1264
      3 C3         -1.4333   -0.5336    0.0129 C.3       1 <0>        -0.1156
      4 C4         -1.4126   -2.0635    0.0045 C.3       1 <0>        -0.0929
      5 C5         -2.8264   -2.5851    0.0152 C.2       1 <0>        -0.1574
      6 C6         -3.2245   -3.4173   -0.9149 C.2       1 <0>        -0.1540
      7 C7         -4.6383   -3.9389   -0.9042 C.3       1 <0>        -0.0637
      8 C8         -5.2905   -3.6497   -2.2316 C.2       1 <0>        -0.1535
      9 C9         -5.8228   -4.6247   -2.9261 C.2       1 <0>        -0.1578
     10 C10        -6.4749   -4.3355   -4.2536 C.3       1 <0>        -0.0920
     11 C11        -5.8438   -5.2155   -5.3344 C.3       1 <0>        -0.1155
     12 C12        -6.5060   -4.9219   -6.6820 C.3       1 <0>        -0.1206
     13 C13        -5.8749   -5.8019   -7.7628 C.3       1 <0>        -0.1205
     14 C14        -6.5370   -5.5083   -9.1105 C.3       1 <0>        -0.1198
     15 C15        -5.9059   -6.3884  -10.1913 C.3       1 <0>        -0.1107
     16 C16        -6.5680   -6.0948  -11.5390 C.3       1 <0>        -0.1131
     17 C17        -5.9464   -6.9616  -12.6036 C.2       1 <0>         0.4614
     18 O1         -5.0643   -7.7348  -12.3140 O.2       1 <0>        -0.5040
     19 O2         -6.3727   -6.8746  -13.8734 O.3       1 <0>        -0.3477
     20 C18        -5.7388   -7.7259  -14.8303 C.3       1 <0>         0.0680
     21 C19        -6.3528   -7.4869  -16.2112 C.3       1 <0>         0.1034
     22 C20        -5.6481   -8.3307  -17.2487 C.2       1 <0>        -0.1629
     23 C21        -6.5547   -8.8634  -18.0341 C.2       1 <0>        -0.1770
     24 C22        -7.9178   -8.4066  -17.5670 C.3       1 <0>         0.3299
     25 O3         -7.7271   -7.9177  -16.2257 O.3       1 <0>        -0.3482
     26 N1         -8.8558   -9.5320  -17.5666 N.am      1 <0>        -0.5337
     27 C23        -9.4646   -9.9065  -16.3997 C.2       1 <0>         0.1746
     28 C24       -10.3293  -10.9434  -16.3995 C.2       1 <0>        -0.2617
     29 C25       -10.5886  -11.6243  -17.6134 C.2       1 <0>         0.5527
     30 O4        -11.3650  -12.5623  -17.6381 O.2       1 <0>        -0.5069
     31 N2         -9.9684  -11.2245  -18.7418 N.am      1 <0>        -0.6566
     32 H1        -10.1409  -11.6860  -19.5774 H         1 <0>         0.4333
     33 C26        -9.1147  -10.1842  -18.7145 C.2       1 <0>         0.7037
     34 O5         -8.5665   -9.8316  -19.7409 O.2       1 <0>        -0.5366
     35 C27       -11.0090  -11.3706  -15.1241 C.3       1 <0>        -0.0804
     36 H2          1.0039    1.9031    0.0027 H         1 <0>         0.0539
     37 H3         -0.5459    1.8868   -0.8726 H         1 <0>         0.0535
     38 H4         -0.5289    1.8773    0.9072 H         1 <0>         0.0537
     39 H5          0.5123   -0.3556   -0.8948 H         1 <0>         0.0607
     40 H6          0.5293   -0.3651    0.8851 H         1 <0>         0.0612
     41 H7         -1.9435   -0.1821    0.9097 H         1 <0>         0.0623
     42 H8         -1.9605   -0.1726   -0.8702 H         1 <0>         0.0619
     43 H9         -0.9024   -2.4150   -0.8923 H         1 <0>         0.0649
     44 H10        -0.8854   -2.4246    0.8875 H         1 <0>         0.0705
     45 H11        -3.5113   -2.2728    0.7896 H         1 <0>         0.1078
     46 H12        -2.5396   -3.7296   -1.6893 H         1 <0>         0.1078
     47 H13        -4.6273   -5.0151   -0.7316 H         1 <0>         0.0740
     48 H14        -5.2003   -3.4492   -0.1089 H         1 <0>         0.0740
     49 H15        -5.3191   -2.6387   -2.6103 H         1 <0>         0.1077
     50 H16        -5.7941   -5.6357   -2.5474 H         1 <0>         0.1077
     51 H17        -7.5418   -4.5490   -4.1884 H         1 <0>         0.0704
     52 H18        -6.3294   -3.2858   -4.5089 H         1 <0>         0.0648
     53 H19        -4.7769   -5.0020   -5.3995 H         1 <0>         0.0621
     54 H20        -5.9894   -6.2651   -5.0790 H         1 <0>         0.0625
     55 H21        -7.5729   -5.1354   -6.6169 H         1 <0>         0.0622
     56 H22        -6.3604   -3.8723   -6.9374 H         1 <0>         0.0615
     57 H23        -4.8080   -5.5884   -7.8280 H         1 <0>         0.0627
     58 H24        -6.0204   -6.8516   -7.5075 H         1 <0>         0.0631
     59 H25        -7.6039   -5.7218   -9.0453 H         1 <0>         0.0654
     60 H26        -6.3914   -4.4587   -9.3658 H         1 <0>         0.0649
     61 H27        -4.8390   -6.1749  -10.2565 H         1 <0>         0.0721
     62 H28        -6.0514   -7.4380   -9.9360 H         1 <0>         0.0725
     63 H29        -7.6349   -6.3083  -11.4738 H         1 <0>         0.1079
     64 H30        -6.4225   -5.0451  -11.7943 H         1 <0>         0.1073
     65 H31        -4.6721   -7.5041  -14.8636 H         1 <0>         0.0902
     66 H32        -5.8846   -8.7672  -14.5431 H         1 <0>         0.0799
     67 H33        -6.2864   -6.4313  -16.4745 H         1 <0>         0.1115
     68 H34        -4.5803   -8.4709  -17.3301 H         1 <0>         0.1637
     69 H35        -6.3600   -9.5172  -18.8714 H         1 <0>         0.1643
     70 H36        -8.2878   -7.6078  -18.2097 H         1 <0>         0.1232
     71 H37        -9.2541   -9.3753  -15.4832 H         1 <0>         0.1833
     72 H38       -11.9476  -10.8275  -15.0131 H         1 <0>         0.0716
     73 H39       -11.2108  -12.4411  -15.1609 H         1 <0>         0.0775
     74 H40       -10.3603  -11.1520  -14.2759 H         1 <0>         0.0702
@<TRIPOS>BOND
     1    1    2 1
     2    1   36 1
     3    1   37 1
     4    1   38 1
     5    2    3 1
     6    2   39 1
     7    2   40 1
     8    3    4 1
     9    3   41 1
    10    3   42 1
    11    4    5 1
    12    4   43 1
    13    4   44 1
    14    5    6 2
    15    5   45 1
    16    6    7 1
    17    6   46 1
    18    7    8 1
    19    7   47 1
    20    7   48 1
    21    8    9 2
    22    8   49 1
    23    9   10 1
    24    9   50 1
    25   10   11 1
    26   10   51 1
    27   10   52 1
    28   11   12 1
    29   11   53 1
    30   11   54 1
    31   12   13 1
    32   12   55 1
    33   12   56 1
    34   13   14 1
    35   13   57 1
    36   13   58 1
    37   14   15 1
    38   14   59 1
    39   14   60 1
    40   15   16 1
    41   15   61 1
    42   15   62 1
    43   16   17 1
    44   16   63 1
    45   16   64 1
    46   17   18 2
    47   17   19 1
    48   19   20 1
    49   20   21 1
    50   20   65 1
    51   20   66 1
    52   21   25 1
    53   21   22 1
    54   21   67 1
    55   22   23 2
    56   22   68 1
    57   23   24 1
    58   23   69 1
    59   24   25 1
    60   24   26 1
    61   24   70 1
    62   26   33 am
    63   26   27 1
    64   27   28 2
    65   27   71 1
    66   28   29 1
    67   28   35 1
    68   29   30 2
    69   29   31 am
    70   31   32 1
    71   31   33 am
    72   33   34 2
    73   35   72 1
    74   35   73 1
    75   35   74 1
@<TRIPOS>MOLECULE
CHEMBL440551__3
   74    75     0     0     0
SMALL
USER_CHARGES

@<TRIPOS>ATOM
      1 C1         -0.4426    1.4927    0.2133 C.3       1 <0>        -0.1542
      2 C2         -0.4013   -0.0366    0.1937 C.3       1 <0>        -0.1264
      3 C3         -1.8295   -0.5852    0.1768 C.3       1 <0>        -0.1157
      4 C4         -1.7881   -2.1145    0.1572 C.3       1 <0>        -0.0929
      5 C5         -3.1948   -2.6549    0.1405 C.2       1 <0>        -0.1574
      6 C6         -3.5665   -3.4850   -0.8022 C.2       1 <0>        -0.1540
      7 C7         -4.9732   -4.0254   -0.8189 C.3       1 <0>        -0.0636
      8 C8         -5.6072   -3.7345   -2.1547 C.2       1 <0>        -0.1535
      9 C9         -6.1149   -4.7110   -2.8653 C.2       1 <0>        -0.1579
     10 C10        -6.7489   -4.4202   -4.2012 C.3       1 <0>        -0.0920
     11 C11        -6.0884   -5.2834   -5.2779 C.3       1 <0>        -0.1155
     12 C12        -6.7321   -4.9881   -6.6342 C.3       1 <0>        -0.1206
     13 C13        -6.0716   -5.8513   -7.7110 C.3       1 <0>        -0.1205
     14 C14        -6.7153   -5.5560   -9.0672 C.3       1 <0>        -0.1198
     15 C15        -6.0548   -6.4192  -10.1440 C.3       1 <0>        -0.1108
     16 C16        -6.6985   -6.1240  -11.5002 C.3       1 <0>        -0.1131
     17 C17        -6.0479   -6.9742  -12.5608 C.2       1 <0>         0.4624
     18 O1         -5.1604   -7.7379  -12.2626 O.2       1 <0>        -0.5034
     19 O2         -6.4543   -6.8830  -13.8368 O.3       1 <0>        -0.3493
     20 C18        -5.7935   -7.7183  -14.7895 C.3       1 <0>         0.0723
     21 C19        -6.3877   -7.4769  -16.1785 C.3       1 <0>         0.0812
     22 C20        -5.6549   -8.3031  -17.2106 C.2       1 <0>        -0.1559
     23 C21        -6.5412   -8.8417  -18.0149 C.2       1 <0>        -0.1775
     24 C22        -7.9178   -8.4066  -17.5670 C.3       1 <0>         0.3181
     25 O3         -7.7558   -7.9256  -16.2190 O.3       1 <0>        -0.3277
     26 N1         -8.4150   -7.3330  -18.4309 N.am      1 <0>        -0.5408
     27 C23        -8.4019   -6.0406  -17.9816 C.2       1 <0>         0.1612
     28 C24        -8.8597   -5.0511  -18.7780 C.2       1 <0>        -0.2556
     29 C25        -9.3461   -5.3743  -20.0677 C.2       1 <0>         0.5528
     30 O4         -9.7637   -4.4989  -20.8042 O.2       1 <0>        -0.5064
     31 N2         -9.3421   -6.6602  -20.4733 N.am      1 <0>        -0.6571
     32 H1         -9.6737   -6.8895  -21.3555 H         1 <0>         0.4332
     33 C26        -8.8751   -7.6263  -19.6607 C.2       1 <0>         0.7034
     34 O5         -8.8730   -8.7809  -20.0418 O.2       1 <0>        -0.5357
     35 C27        -8.8536   -3.6218  -18.3003 C.3       1 <0>        -0.0822
     36 H2          0.5748    1.8835    0.2254 H         1 <0>         0.0539
     37 H3         -0.9600    1.8536   -0.6756 H         1 <0>         0.0535
     38 H4         -0.9722    1.8305    1.1042 H         1 <0>         0.0537
     39 H5          0.1282   -0.3744   -0.6971 H         1 <0>         0.0607
     40 H6          0.1160   -0.3975    1.0826 H         1 <0>         0.0612
     41 H7         -2.3590   -0.2474    1.0676 H         1 <0>         0.0622
     42 H8         -2.3468   -0.2243   -0.7121 H         1 <0>         0.0619
     43 H9         -1.2586   -2.4523   -0.7337 H         1 <0>         0.0650
     44 H10        -1.2708   -2.4754    1.0461 H         1 <0>         0.0705
     45 H11        -3.8966   -2.3577    0.9058 H         1 <0>         0.1077
     46 H12        -2.8648   -3.7822   -1.5675 H         1 <0>         0.1078
     47 H13        -4.9506   -5.1026   -0.6543 H         1 <0>         0.0740
     48 H14        -5.5547   -3.5493   -0.0294 H         1 <0>         0.0740
     49 H15        -5.6431   -2.7211   -2.5263 H         1 <0>         0.1078
     50 H16        -6.0790   -5.7245   -2.4938 H         1 <0>         0.1076
     51 H17        -7.8138   -4.6483   -4.1553 H         1 <0>         0.0704
     52 H18        -6.6132   -3.3668   -4.4461 H         1 <0>         0.0648
     53 H19        -5.0235   -5.0553   -5.3238 H         1 <0>         0.0621
     54 H20        -6.2241   -6.3368   -5.0330 H         1 <0>         0.0624
     55 H21        -7.7970   -5.2162   -6.5883 H         1 <0>         0.0621
     56 H22        -6.5964   -3.9347   -6.8791 H         1 <0>         0.0616
     57 H23        -5.0067   -5.6232   -7.7569 H         1 <0>         0.0628
     58 H24        -6.2073   -6.9047   -7.4660 H         1 <0>         0.0630
     59 H25        -7.7802   -5.7841   -9.0213 H         1 <0>         0.0653
     60 H26        -6.5796   -4.5026   -9.3121 H         1 <0>         0.0651
     61 H27        -4.9899   -6.1911  -10.1899 H         1 <0>         0.0723
     62 H28        -6.1905   -7.4726   -9.8990 H         1 <0>         0.0725
     63 H29        -7.7634   -6.3520  -11.4543 H         1 <0>         0.1081
     64 H30        -6.5628   -5.0705  -11.7452 H         1 <0>         0.1076
     65 H31        -4.7294   -7.4822  -14.8034 H         1 <0>         0.0905
     66 H32        -5.9300   -8.7637  -14.5126 H         1 <0>         0.0833
     67 H33        -6.3311   -6.4184  -16.4327 H         1 <0>         0.1038
     68 H34        -4.5842   -8.4291  -17.2749 H         1 <0>         0.1645
     69 H35        -6.3240   -9.4858  -18.8542 H         1 <0>         0.1653
     70 H36        -8.6043   -9.2531  -17.5845 H         1 <0>         0.1452
     71 H37        -8.0274   -5.8131  -16.9944 H         1 <0>         0.1786
     72 H38        -7.9084   -3.1520  -18.5720 H         1 <0>         0.0714
     73 H39        -9.6762   -3.0794  -18.7664 H         1 <0>         0.0788
     74 H40        -8.9719   -3.6003  -17.2169 H         1 <0>         0.0715
@<TRIPOS>BOND
     1    1    2 1
     2    1   36 1
     3    1   37 1
     4    1   38 1
     5    2    3 1
     6    2   39 1
     7    2   40 1
     8    3    4 1
     9    3   41 1
    10    3   42 1
    11    4    5 1
    12    4   43 1
    13    4   44 1
    14    5    6 2
    15    5   45 1
    16    6    7 1
    17    6   46 1
    18    7    8 1
    19    7   47 1
    20    7   48 1
    21    8    9 2
    22    8   49 1
    23    9   10 1
    24    9   50 1
    25   10   11 1
    26   10   51 1
    27   10   52 1
    28   11   12 1
    29   11   53 1
    30   11   54 1
    31   12   13 1
    32   12   55 1
    33   12   56 1
    34   13   14 1
    35   13   57 1
    36   13   58 1
    37   14   15 1
    38   14   59 1
    39   14   60 1
    40   15   16 1
    41   15   61 1
    42   15   62 1
    43   16   17 1
    44   16   63 1
    45   16   64 1
    46   17   18 2
    47   17   19 1
    48   19   20 1
    49   20   21 1
    50   20   65 1
    51   20   66 1
    52   21   25 1
    53   21   22 1
    54   21   67 1
    55   22   23 2
    56   22   68 1
    57   23   24 1
    58   23   69 1
    59   24   25 1
    60   24   26 1
    61   24   70 1
    62   26   33 am
    63   26   27 1
    64   27   28 2
    65   27   71 1
    66   28   29 1
    67   28   35 1
    68   29   30 2
    69   29   31 am
    70   31   32 1
    71   31   33 am
    72   33   34 2
    73   35   72 1
    74   35   73 1
    75   35   74 1
@<TRIPOS>MOLECULE
CHEMBL176631
   37    39     0     0     0
SMALL
USER_CHARGES

@<TRIPOS>ATOM
      1 C1         -0.0187    1.5258    0.0104 C.3       1 <0>        -0.1511
      2 C2          0.0021   -0.0041    0.0020 C.3       1 <0>        -0.0696
      3 C3          0.7074   -0.4901   -1.2379 C.2       1 <0>        -0.1590
      4 C4         -0.0021   -0.6270   -2.4401 C.2       1 <0>        -0.1170
      5 C5          0.6526   -1.0685   -3.5552 C.2       1 <0>         0.0116
      6 C6          2.0266   -1.3760   -3.4706 C.2       1 <0>         0.5313
      7 N1          2.6770   -1.2330   -2.3001 N.am      1 <0>        -0.5916
      8 C7          2.0256   -0.7887   -1.1925 C.2       1 <0>         0.1299
      9 C8          2.7802   -0.6328    0.1026 C.3       1 <0>        -0.1263
     10 O1          2.6257   -1.7720   -4.4578 O.2       1 <0>        -0.5264
     11 O2         -0.0130   -1.2102   -4.7330 O.3       1 <0>        -0.2826
     12 C9         -1.4030   -0.8786   -4.7366 C.3       1 <0>         0.1531
     13 C10        -1.9678   -1.0961   -6.1168 C.2       1 <0>         0.2578
     14 N2         -2.4917   -2.2076   -6.5380 N.2       1 <0>        -0.4324
     15 C11        -2.8949   -2.0416   -7.8269 C.ar      1 <0>         0.0375
     16 C12        -3.5093   -2.8772   -8.7629 C.ar      1 <0>         0.0257
     17 C13        -3.7965   -2.3977  -10.0223 C.ar      1 <0>        -0.0983
     18 C14        -3.4791   -1.0918  -10.3658 C.ar      1 <0>        -0.0652
     19 C15        -2.8716   -0.2556   -9.4514 C.ar      1 <0>        -0.0113
     20 C16        -2.5759   -0.7218   -8.1780 C.ar      1 <0>         0.0371
     21 O3         -2.0066   -0.1672   -7.0851 O.3       1 <0>        -0.1889
     22 Cl1        -2.4779    1.3765   -9.8930 Cl        1 <0>        -0.0362
     23 Cl2        -3.9089   -4.5131   -8.3412 Cl        1 <0>        -0.0284
     24 H1          1.0039    1.9031    0.0027 H         1 <0>         0.0557
     25 H2         -0.5459    1.8868   -0.8726 H         1 <0>         0.0560
     26 H3         -0.5289    1.8773    0.9072 H         1 <0>         0.0605
     27 H4          0.5293   -0.3651    0.8851 H         1 <0>         0.0774
     28 H5         -1.0205   -0.3814    0.0098 H         1 <0>         0.0757
     29 H6         -1.0541   -0.3865   -2.4837 H         1 <0>         0.1410
     30 H7          2.7337   -1.5655    0.6648 H         1 <0>         0.0894
     31 H8          3.8209   -0.3885   -0.1104 H         1 <0>         0.0774
     32 H9          2.3318    0.1684    0.6902 H         1 <0>         0.0957
     33 H10         3.6218   -1.4459   -2.2475 H         1 <0>         0.4225
     34 H11        -1.9299   -1.5135   -4.0243 H         1 <0>         0.1179
     35 H12        -1.5280    0.1665   -4.4535 H         1 <0>         0.1035
     36 H13        -4.2715   -3.0427  -10.7467 H         1 <0>         0.1623
     37 H14        -3.7086   -0.7270  -11.3561 H         1 <0>         0.1651
@<TRIPOS>BOND
     1    1    2 1
     2    1   24 1
     3    1   25 1
     4    1   26 1
     5    2   27 1
     6    2   28 1
     7    2    3 1
     8    3    4 1
     9    3    8 2
    10    4    5 2
    11    4   29 1
    12    5    6 1
    13    5   11 1
    14    6    7 am
    15    6   10 2
    16    7   33 1
    17    7    8 1
    18    8    9 1
    19    9   30 1
    20    9   31 1
    21    9   32 1
    22   11   12 1
    23   12   13 1
    24   12   34 1
    25   12   35 1
    26   13   21 1
    27   13   14 2
    28   14   15 1
    29   15   20 ar
    30   15   16 ar
    31   16   17 ar
    32   16   23 1
    33   17   18 ar
    34   17   36 1
    35   18   19 ar
    36   18   37 1
    37   19   20 ar
    38   19   22 1
    39   20   21 1
@<TRIPOS>MOLECULE
CHEMBL132122
   42    43     0     0     0
SMALL
USER_CHARGES

@<TRIPOS>ATOM
      1 C1         -0.0187    1.5258    0.0104 C.3       1 <0>        -0.1735
      2 C2          0.0021   -0.0041    0.0020 C.3       1 <0>         0.0915
      3 C3          0.7421   -0.5109    1.2415 C.3       1 <0>        -0.1502
      4 O1         -1.3386   -0.4987    0.0122 O.3       1 <0>        -0.3433
      5 C4         -1.9235   -0.7038   -1.1832 C.2       1 <0>         0.6633
      6 O2         -1.3124   -0.4693   -2.2070 O.2       1 <0>        -0.5239
      7 N1         -3.1869   -1.1693   -1.2442 N.am      1 <0>        -0.5402
      8 C5         -3.9156   -1.4422   -0.0754 C.ar      1 <0>         0.1788
      9 C6         -3.2776   -1.8299    1.0886 C.ar      1 <0>        -0.1366
     10 C7         -4.0258   -2.0969    2.2266 C.ar      1 <0>         0.1589
     11 C8         -5.4076   -1.9757    2.1944 C.ar      1 <0>        -0.1979
     12 C9         -6.0468   -1.5872    1.0319 C.ar      1 <0>        -0.0604
     13 C10        -5.3055   -1.3160   -0.1072 C.ar      1 <0>         0.0397
     14 N2         -5.9350   -0.9104   -1.2906 N.pl3     1 <0>        -0.5528
     15 C11        -5.2690   -0.9152   -2.4607 C.2       1 <0>         0.3113
     16 C12        -3.8482   -1.4018   -2.5369 C.3       1 <0>         0.2011
     17 C13        -3.8408   -2.8986   -2.8538 C.3       1 <0>        -0.1090
     18 S1         -2.1281   -3.4905   -2.9370 S.3       1 <0>        -0.2127
     19 C14        -2.2922   -5.2570   -3.3153 C.3       1 <0>        -0.1288
     20 S2         -6.0474   -0.3557   -3.8792 S.2       1 <0>        -0.4902
     21 O3         -3.4041   -2.4781    3.3742 O.3       1 <0>        -0.3065
     22 C15        -4.2354   -2.7370    4.5072 C.3       1 <0>         0.0233
     23 H1          1.0039    1.9031    0.0027 H         1 <0>         0.0781
     24 H2         -0.5459    1.8868   -0.8726 H         1 <0>         0.0620
     25 H3         -0.5289    1.8773    0.9072 H         1 <0>         0.0656
     26 H4          0.5123   -0.3556   -0.8948 H         1 <0>         0.0909
     27 H5          0.2319   -0.1594    2.1383 H         1 <0>         0.0690
     28 H6          0.7568   -1.6008    1.2356 H         1 <0>         0.0669
     29 H7          1.7647   -0.1336    1.2338 H         1 <0>         0.0827
     30 H8         -2.2020   -1.9247    1.1119 H         1 <0>         0.1629
     31 H9         -5.9865   -2.1863    3.0815 H         1 <0>         0.1442
     32 H10        -7.1227   -1.4951    1.0114 H         1 <0>         0.1446
     33 H11        -3.3188   -0.8592   -3.3201 H         1 <0>         0.1632
     34 H12        -4.3742   -3.4383   -2.0714 H         1 <0>         0.0889
     35 H13        -4.3312   -3.0695   -3.8122 H         1 <0>         0.1162
     36 H14        -2.8581   -5.7472   -2.5231 H         1 <0>         0.0764
     37 H15        -2.8152   -5.3784   -4.2639 H         1 <0>         0.0806
     38 H16        -1.3019   -5.7070   -3.3862 H         1 <0>         0.1071
     39 H17        -4.7935   -1.8360    4.7619 H         1 <0>         0.0601
     40 H18        -4.9321   -3.5412    4.2706 H         1 <0>         0.0598
     41 H19        -3.6148   -3.0313    5.3536 H         1 <0>         0.1059
     42 H20        -6.8612   -0.6232   -1.2671 H         1 <0>         0.4327
@<TRIPOS>BOND
     1    1    2 1
     2    1   23 1
     3    1   24 1
     4    1   25 1
     5    2    3 1
     6    2    4 1
     7    2   26 1
     8    3   27 1
     9    3   28 1
    10    3   29 1
    11    4    5 1
    12    5    6 2
    13    5    7 am
    14    7   16 1
    15    7    8 1
    16    8   13 ar
    17    8    9 ar
    18    9   10 ar
    19    9   30 1
    20   10   11 ar
    21   10   21 1
    22   11   12 ar
    23   11   31 1
    24   12   13 ar
    25   12   32 1
    26   13   14 1
    27   14   15 1
    28   14   42 1
    29   15   16 1
    30   15   20 2
    31   16   17 1
    32   16   33 1
    33   17   18 1
    34   17   34 1
    35   17   35 1
    36   18   19 1
    37   19   36 1
    38   19   37 1
    39   19   38 1
    40   21   22 1
    41   22   39 1
    42   22   40 1
    43   22   41 1
@<TRIPOS>MOLECULE
CHEMBL132122__1
   42    43     0     0     0
SMALL
USER_CHARGES

@<TRIPOS>ATOM
      1 C1         -0.0187    1.5258    0.0104 C.3       1 <0>        -0.1732
      2 C2          0.0021   -0.0041    0.0020 C.3       1 <0>         0.0917
      3 C3          0.7421   -0.5109    1.2415 C.3       1 <0>        -0.1502
      4 O1         -1.3386   -0.4987    0.0122 O.3       1 <0>        -0.3437
      5 C4         -1.9235   -0.7038   -1.1832 C.2       1 <0>         0.6627
      6 O2         -1.3124   -0.4693   -2.2070 O.2       1 <0>        -0.5234
      7 N1         -3.1869   -1.1693   -1.2442 N.am      1 <0>        -0.5412
      8 C5         -3.9156   -1.4422   -0.0754 C.ar      1 <0>         0.1779
      9 C6         -3.6785   -0.7414    1.0928 C.ar      1 <0>        -0.1368
     10 C7         -4.4183   -1.0311    2.2308 C.ar      1 <0>         0.1587
     11 C8         -5.3916   -2.0193    2.1942 C.ar      1 <0>        -0.1976
     12 C9         -5.6285   -2.7223    1.0277 C.ar      1 <0>        -0.0605
     13 C10        -4.8918   -2.4395   -0.1115 C.ar      1 <0>         0.0406
     14 N2         -5.1109   -3.1484   -1.2993 N.pl3     1 <0>        -0.5531
     15 C11        -4.6099   -2.7048   -2.4677 C.2       1 <0>         0.3110
     16 C12        -3.8482   -1.4018   -2.5369 C.3       1 <0>         0.2024
     17 C13        -4.8155   -0.2534   -2.8309 C.3       1 <0>        -0.1097
     18 S1         -3.8798    1.2863   -3.0417 S.3       1 <0>        -0.2106
     19 C14        -5.1547    2.5319   -3.3790 C.3       1 <0>        -0.1295
     20 S2         -4.8432   -3.6258   -3.8918 S.2       1 <0>        -0.4892
     21 O3         -4.1894   -0.3456    3.3824 O.3       1 <0>        -0.3066
     22 C15        -4.9872   -0.6954    4.5152 C.3       1 <0>         0.0234
     23 H1          1.0039    1.9031    0.0027 H         1 <0>         0.0771
     24 H2         -0.5459    1.8868   -0.8726 H         1 <0>         0.0662
     25 H3         -0.5289    1.8773    0.9072 H         1 <0>         0.0664
     26 H4          0.5123   -0.3556   -0.8948 H         1 <0>         0.0889
     27 H5          0.2319   -0.1594    2.1383 H         1 <0>         0.0695
     28 H6          0.7568   -1.6008    1.2356 H         1 <0>         0.0643
     29 H7          1.7647   -0.1336    1.2338 H         1 <0>         0.0827
     30 H8         -2.9212    0.0283    1.1195 H         1 <0>         0.1626
     31 H9         -5.9665   -2.2406    3.0813 H         1 <0>         0.1443
     32 H10        -6.3867   -3.4909    1.0043 H         1 <0>         0.1447
     33 H11        -3.0978   -1.4591   -3.3253 H         1 <0>         0.1631
     34 H12        -5.3696   -0.4698   -3.7442 H         1 <0>         0.1153
     35 H13        -5.5127   -0.1440   -2.0002 H         1 <0>         0.0897
     36 H14        -5.7016    2.2570   -4.2809 H         1 <0>         0.0805
     37 H15        -5.8448    2.5828   -2.5369 H         1 <0>         0.0763
     38 H16        -4.6836    3.5044   -3.5221 H         1 <0>         0.1071
     39 H17        -6.0397   -0.5336    4.2822 H         1 <0>         0.0598
     40 H18        -4.8270   -1.7449    4.7622 H         1 <0>         0.0603
     41 H19        -4.7036   -0.0747    5.3650 H         1 <0>         0.1059
     42 H20        -5.6290   -3.9682   -1.2800 H         1 <0>         0.4327
@<TRIPOS>BOND
     1    1    2 1
     2    1   23 1
     3    1   24 1
     4    1   25 1
     5    2    3 1
     6    2    4 1
     7    2   26 1
     8    3   27 1
     9    3   28 1
    10    3   29 1
    11    4    5 1
    12    5    6 2
    13    5    7 am
    14    7   16 1
    15    7    8 1
    16    8   13 ar
    17    8    9 ar
    18    9   10 ar
    19    9   30 1
    20   10   11 ar
    21   10   21 1
    22   11   12 ar
    23   11   31 1
    24   12   13 ar
    25   12   32 1
    26   13   14 1
    27   14   15 1
    28   14   42 1
    29   15   16 1
    30   15   20 2
    31   16   17 1
    32   16   33 1
    33   17   18 1
    34   17   34 1
    35   17   35 1
    36   18   19 1
    37   19   36 1
    38   19   37 1
    39   19   38 1
    40   21   22 1
    41   22   39 1
    42   22   40 1
    43   22   41 1
@<TRIPOS>MOLECULE
CHEMBL141923
   31    32     0     0     0
SMALL
USER_CHARGES

@<TRIPOS>ATOM
      1 C1          0.0180   -1.1779   -0.0044 C.1       1 <0>        -0.1579
      2 C2          0.0021   -0.0041    0.0020 C.1       1 <0>        -0.2060
      3 C3         -0.0179    1.4678    0.0101 C.3       1 <0>         0.2366
      4 C4         -0.6892    1.9756    1.3009 C.3       1 <0>         0.0977
      5 H1         -1.0218    1.1374    1.9131 H         1 <0>         0.0859
      6 C5          0.4285    2.7653    2.0245 C.3       1 <0>        -0.1957
      7 C6          1.7099    2.1818    1.3766 C.3       1 <0>         0.2891
      8 H2          1.9809    1.2361    1.8460 H         1 <0>         0.1092
      9 O1          1.3271    1.9749   -0.0000 O.3       1 <0>        -0.3253
     10 N1          2.8162    3.1377    1.4697 N.am      1 <0>        -0.5319
     11 C7          3.9147    2.8325    2.2161 C.2       1 <0>         0.1955
     12 C8          4.9309    3.7239    2.2941 C.2       1 <0>        -0.3051
     13 C9          4.8226    4.9457    1.5986 C.2       1 <0>         0.5032
     14 N2          3.7338    5.1993    0.8843 N.2       1 <0>        -0.6159
     15 C10         2.7448    4.3102    0.8132 C.2       1 <0>         0.6566
     16 O2          1.7560    4.5647    0.1457 O.2       1 <0>        -0.5165
     17 N3          5.8399    5.8696    1.6607 N.pl3     1 <0>        -0.8149
     18 O3         -1.7891    2.8328    0.9887 O.3       1 <0>        -0.5463
     19 C11        -0.7779    1.9843   -1.2132 C.3       1 <0>         0.1029
     20 O4         -0.2120    1.4209   -2.3983 O.3       1 <0>        -0.5665
     21 H3          0.0322   -2.2278   -0.0102 H         1 <0>         0.2236
     22 H4          0.3427    3.8332    1.8237 H         1 <0>         0.1120
     23 H5          0.4111    2.5699    3.0967 H         1 <0>         0.0957
     24 H6          3.9740    1.8900    2.7401 H         1 <0>         0.1752
     25 H7          5.8107    3.5027    2.8802 H         1 <0>         0.1573
     26 H8          6.6346    5.6815    2.1841 H         1 <0>         0.4151
     27 H9          5.7625    6.7093    1.1812 H         1 <0>         0.4136
     28 H10        -2.2487    3.1815    1.7647 H         1 <0>         0.3884
     29 H11        -1.8262    1.6954   -1.1383 H         1 <0>         0.0685
     30 H12        -0.7025    3.0708   -1.2557 H         1 <0>         0.0741
     31 H13        -0.6454    1.7053   -3.2147 H         1 <0>         0.3818
@<TRIPOS>BOND
     1    1    2 3
     2    1   21 1
     3    2    3 1
     4    3    9 1
     5    3    4 1
     6    3   19 1
     7    4    5 1
     8    4    6 1
     9    4   18 1
    10    6    7 1
    11    6   22 1
    12    6   23 1
    13    7    8 1
    14    7    9 1
    15    7   10 1
    16   10   15 am
    17   10   11 1
    18   11   12 2
    19   11   24 1
    20   12   13 1
    21   12   25 1
    22   13   14 2
    23   13   17 1
    24   14   15 1
    25   15   16 2
    26   17   26 1
    27   17   27 1
    28   18   28 1
    29   19   20 1
    30   19   29 1
    31   19   30 1
    32   20   31 1
@<TRIPOS>MOLECULE
CHEMBL593
   60    63     0     0     0
SMALL
USER_CHARGES

@<TRIPOS>ATOM
      1 C1         -6.6285   -3.0418    7.1231 C.3       1 <0>        -0.1672
      2 C2         -5.7404   -3.9137    6.2332 C.3       1 <0>         0.1330
      3 C3         -6.3477   -5.3136    6.1219 C.3       1 <0>        -0.1747
      4 N1         -5.6470   -3.3144    4.8997 N.pl3     1 <0>        -0.6964
      5 C4         -4.5393   -3.5842    4.0870 C.ar      1 <0>         0.2262
      6 C5         -3.5570   -4.4717    4.5059 C.ar      1 <0>        -0.0898
      7 C6         -2.4773   -4.7079    3.6656 C.ar      1 <0>        -0.0769
      8 C7         -2.4117   -4.0597    2.4489 C.ar      1 <0>         0.0710
      9 N2         -3.3593   -3.2201    2.0739 N.ar      1 <0>        -0.4157
     10 C8         -4.4081   -2.9689    2.8394 C.ar      1 <0>         0.3176
     11 N3         -5.3867   -2.0799    2.4010 N.pl3     1 <0>        -0.6659
     12 C9         -5.3454   -0.6660    2.7997 C.3       1 <0>         0.1201
     13 C10        -5.3613    0.2006    1.5344 C.3       1 <0>         0.0810
     14 N4         -6.4532   -0.2584    0.6645 N.am      1 <0>        -0.6188
     15 C11        -6.4945   -1.6724    0.2658 C.3       1 <0>         0.0958
     16 C12        -6.4755   -2.5378    1.5265 C.3       1 <0>         0.1186
     17 C13        -7.4001    0.6018    0.2402 C.2       1 <0>         0.5980
     18 O1         -8.3524    0.1925   -0.3964 O.2       1 <0>        -0.5140
     19 C14        -7.2819    2.0351    0.5470 C.2       1 <0>        -0.0173
     20 C15        -8.2988    2.8404    0.9516 C.2       1 <0>        -0.1127
     21 C16        -7.7709    4.1406    1.1405 C.ar      1 <0>        -0.0659
     22 C17        -8.3364    5.3577    1.5438 C.ar      1 <0>        -0.1622
     23 C18        -7.5424    6.4828    1.6346 C.ar      1 <0>         0.2621
     24 C19        -6.1831    6.4123    1.3272 C.ar      1 <0>        -0.1783
     25 C20        -5.6161    5.2236    0.9297 C.ar      1 <0>        -0.1003
     26 C21        -6.3986    4.0763    0.8318 C.ar      1 <0>         0.0352
     27 N5         -6.1185    2.7759    0.4753 N.pl3     1 <0>        -0.5890
     28 H1         -5.2479    2.4365    0.2151 H         1 <0>         0.4031
     29 N6         -8.1032    7.7005    2.0365 N.2       1 <0>        -1.0972
     30 S1         -7.1540    9.0529    2.1468 S.o2      1 <0>         2.5238
     31 O2         -6.2160    8.7550    3.1717 O.2       1 <0>        -1.0347
     32 O3         -6.7194    9.3004    0.8167 O.2       1 <0>        -1.0325
     33 C22        -8.2782   10.3682    2.6917 C.3       1 <0>        -0.6352
     34 H2         -6.6980   -3.4876    8.1153 H         1 <0>         0.0851
     35 H3         -6.1959   -2.0445    7.2024 H         1 <0>         0.0690
     36 H4         -7.6244   -2.9720    6.6855 H         1 <0>         0.0685
     37 H5         -4.7445   -3.9834    6.6708 H         1 <0>         0.0901
     38 H6         -7.3436   -5.2438    5.6843 H         1 <0>         0.0673
     39 H7         -5.7150   -5.9347    5.4879 H         1 <0>         0.0587
     40 H8         -6.4172   -5.7594    7.1141 H         1 <0>         0.0794
     41 H9         -6.3526   -2.7307    4.5797 H         1 <0>         0.4176
     42 H10        -3.6309   -4.9664    5.4631 H         1 <0>         0.1704
     43 H11        -1.6959   -5.3922    3.9614 H         1 <0>         0.1829
     44 H12        -1.5725   -4.2417    1.7939 H         1 <0>         0.2026
     45 H13        -6.2157   -0.4334    3.4133 H         1 <0>         0.0860
     46 H14        -4.4338   -0.4717    3.3648 H         1 <0>         0.0912
     47 H15        -5.5245    1.2432    1.8071 H         1 <0>         0.1180
     48 H16        -4.4103    0.1014    1.0111 H         1 <0>         0.0701
     49 H17        -7.4061   -1.8667   -0.2993 H         1 <0>         0.1135
     50 H18        -5.6241   -1.9050   -0.3478 H         1 <0>         0.0676
     51 H19        -6.3100   -3.5793    1.2510 H         1 <0>         0.0882
     52 H20        -7.4281   -2.4415    2.0474 H         1 <0>         0.0847
     53 H21        -9.3258    2.5422    1.1023 H         1 <0>         0.1410
     54 H22        -9.3883    5.4150    1.7819 H         1 <0>         0.1162
     55 H23        -5.5709    7.2988    1.4016 H         1 <0>         0.1115
     56 H24        -4.5631    5.1803    0.6939 H         1 <0>         0.1048
     57 H25        -8.7113   10.0999    3.6553 H         1 <0>         0.1155
     58 H26        -7.7245   11.3020    2.7896 H         1 <0>         0.1018
     59 H27        -9.0742   10.4931    1.9576 H         1 <0>         0.1161
     60 H28        -3.2860   -2.7788    1.2132 H         1 <0>         0.4413
@<TRIPOS>BOND
     1    1    2 1
     2    1   34 1
     3    1   35 1
     4    1   36 1
     5    2    3 1
     6    2    4 1
     7    2   37 1
     8    3   38 1
     9    3   39 1
    10    3   40 1
    11    4    5 1
    12    4   41 1
    13    5   10 ar
    14    5    6 ar
    15    6    7 ar
    16    6   42 1
    17    7    8 ar
    18    7   43 1
    19    8    9 ar
    20    8   44 1
    21    9   10 ar
    22    9   60 1
    23   10   11 1
    24   11   16 1
    25   11   12 1
    26   12   13 1
    27   12   45 1
    28   12   46 1
    29   13   14 1
    30   13   47 1
    31   13   48 1
    32   14   15 1
    33   14   17 am
    34   15   16 1
    35   15   49 1
    36   15   50 1
    37   16   51 1
    38   16   52 1
    39   17   18 2
    40   17   19 1
    41   19   27 1
    42   19   20 2
    43   20   21 1
    44   20   53 1
    45   21   26 ar
    46   21   22 ar
    47   22   23 ar
    48   22   54 1
    49   23   24 ar
    50   23   29 1
    51   24   25 ar
    52   24   55 1
    53   25   26 ar
    54   25   56 1
    55   26   27 1
    56   27   28 1
    57   29   30 1
    58   30   31 2
    59   30   32 2
    60   30   33 1
    61   33   57 1
    62   33   58 1
    63   33   59 1
@<TRIPOS>MOLECULE
CHEMBL424046
   34    37     0     0     0
SMALL
USER_CHARGES

@<TRIPOS>ATOM
      1 C1         -0.0167    1.3786    0.0096 C.ar      1 <0>        -0.1908
      2 C2          1.1793    2.0757    0.0019 C.ar      1 <0>        -0.0023
      3 C3          2.3744    1.3475   -0.0056 C.ar      1 <0>        -0.2012
      4 C4          2.3114   -0.0544    0.0273 C.ar      1 <0>         0.4130
      5 N1          1.1396   -0.6716    0.0084 N.ar      1 <0>        -0.4981
      6 C5          0.0021   -0.0041    0.0020 C.ar      1 <0>         0.1498
      7 N2          3.4787   -0.7938    0.1228 N.pl3     1 <0>        -0.5704
      8 C6          4.3171   -0.6097    1.2223 C.ar      1 <0>         0.3643
      9 C7          4.8998    0.6297    1.4734 C.ar      1 <0>         0.0855
     10 C8          5.6858    0.7858    2.6105 C.ar      1 <0>        -0.0843
     11 C9          5.8839   -0.3112    3.4374 C.ar      1 <0>        -0.1542
     12 C10         5.2994   -1.5171    3.1094 C.ar      1 <0>         0.1069
     13 N3          4.5457   -1.6338    2.0327 N.ar      1 <0>        -0.4681
     14 N4          4.7579    1.7005    0.5942 N.am      1 <0>        -0.6457
     15 C11         3.6605    2.0480   -0.0608 C.2       1 <0>         0.5799
     16 O1          3.7257    3.0338   -0.7695 O.2       1 <0>        -0.5250
     17 C12         3.8292   -1.7604   -0.9208 C.3       1 <0>         0.1488
     18 C13         4.4885   -3.0397   -0.3792 C.3       1 <0>        -0.1501
     19 C14         5.4309   -2.9737   -1.5927 C.3       1 <0>        -0.1416
     20 C15         5.1677   -1.4588   -1.6154 C.3       1 <0>        -0.1536
     21 H1         -0.9566    1.9102    0.0259 H         1 <0>         0.1492
     22 H2          1.1898    3.1557    0.0021 H         1 <0>         0.1486
     23 H3         -0.9314   -0.5471   -0.0090 H         1 <0>         0.1681
     24 H4          6.1324    1.7408    2.8451 H         1 <0>         0.1469
     25 H5          6.4886   -0.2218    4.3278 H         1 <0>         0.1474
     26 H6          5.4612   -2.3772    3.7422 H         1 <0>         0.1669
     27 H7          5.5444    2.2485    0.4461 H         1 <0>         0.4133
     28 H8          3.0102   -1.9498   -1.6147 H         1 <0>         0.1112
     29 H9          4.9955   -2.8992    0.5754 H         1 <0>         0.1103
     30 H10         3.8287   -3.9073   -0.3855 H         1 <0>         0.0715
     31 H11         6.4631   -3.2341   -1.3586 H         1 <0>         0.0719
     32 H12         5.0501   -3.4962   -2.4702 H         1 <0>         0.0826
     33 H13         5.0561   -1.0500   -2.6197 H         1 <0>         0.0710
     34 H14         5.8603   -0.8860   -0.9987 H         1 <0>         0.0783
@<TRIPOS>BOND
     1    1    6 ar
     2    1    2 ar
     3    1   21 1
     4    2    3 ar
     5    2   22 1
     6    3   15 1
     7    3    4 ar
     8    4    5 ar
     9    4    7 1
    10    5    6 ar
    11    6   23 1
    12    7    8 1
    13    7   17 1
    14    8   13 ar
    15    8    9 ar
    16    9   10 ar
    17    9   14 1
    18   10   11 ar
    19   10   24 1
    20   11   12 ar
    21   11   25 1
    22   12   13 ar
    23   12   26 1
    24   14   15 am
    25   14   27 1
    26   15   16 2
    27   17   20 1
    28   17   18 1
    29   17   28 1
    30   18   19 1
    31   18   29 1
    32   18   30 1
    33   19   20 1
    34   19   31 1
    35   19   32 1
    36   20   33 1
    37   20   34 1
@<TRIPOS>MOLECULE
CHEMBL69855
   31    34     0     0     0
SMALL
USER_CHARGES

@<TRIPOS>ATOM
      1 C1         -0.0166    1.3758    0.0096 C.ar      1 <0>        -0.1815
      2 C2          1.1827    2.0727    0.0019 C.ar      1 <0>        -0.0514
      3 C3          2.3765    1.3446   -0.0214 C.ar      1 <0>        -0.1169
      4 C4          2.3125   -0.0549   -0.0680 C.ar      1 <0>         0.3899
      5 N1          1.1420   -0.6711   -0.0332 N.ar      1 <0>        -0.4930
      6 C5          0.0021   -0.0041    0.0020 C.ar      1 <0>         0.1218
      7 N2          3.4778   -0.8080   -0.1938 N.pl3     1 <0>        -0.5529
      8 C6          4.2875   -0.6420   -1.3152 C.ar      1 <0>         0.3924
      9 C7          4.8693    0.6025   -1.5916 C.ar      1 <0>        -0.1186
     10 C8          5.6165    0.7521   -2.7642 C.ar      1 <0>        -0.0506
     11 C9          5.7830   -0.3523   -3.5870 C.ar      1 <0>        -0.1825
     12 C10         5.2123   -1.5562   -3.2272 C.ar      1 <0>         0.1213
     13 N3          4.4937   -1.6689   -2.1243 N.ar      1 <0>        -0.4952
     14 C11         4.7415    1.7310   -0.6642 C.2       1 <0>        -0.0907
     15 C12         3.6595    2.0527    0.0164 C.2       1 <0>        -0.0920
     16 C13         3.8499   -1.7689    0.8476 C.3       1 <0>         0.1060
     17 C14         5.2338   -2.4141    0.7516 C.3       1 <0>        -0.1832
     18 C15         3.9826   -3.2373    0.4391 C.3       1 <0>        -0.1843
     19 H1         -0.9562    1.9081    0.0259 H         1 <0>         0.1415
     20 H2          1.1944    3.1526    0.0132 H         1 <0>         0.1415
     21 H3         -0.9308   -0.5478    0.0252 H         1 <0>         0.1609
     22 H4          6.0534    1.7052   -3.0233 H         1 <0>         0.1413
     23 H5          6.3540   -0.2708   -4.5001 H         1 <0>         0.1411
     24 H6          5.3556   -2.4211   -3.8580 H         1 <0>         0.1605
     25 H7          5.6124    2.3547   -0.5264 H         1 <0>         0.1266
     26 H8          3.7240    2.9170    0.6608 H         1 <0>         0.1264
     27 H9          3.4611   -1.5567    1.8436 H         1 <0>         0.1241
     28 H10         5.8675   -2.1237   -0.0864 H         1 <0>         0.0913
     29 H11         5.7559   -2.6265    1.6846 H         1 <0>         0.1008
     30 H12         3.6816   -3.9913    1.1665 H         1 <0>         0.0946
     31 H13         3.7931   -3.4885   -0.6045 H         1 <0>         0.1107
@<TRIPOS>BOND
     1    1    6 ar
     2    1    2 ar
     3    1   19 1
     4    2    3 ar
     5    2   20 1
     6    3   15 1
     7    3    4 ar
     8    4    5 ar
     9    4    7 1
    10    5    6 ar
    11    6   21 1
    12    7    8 1
    13    7   16 1
    14    8   13 ar
    15    8    9 ar
    16    9   10 ar
    17    9   14 1
    18   10   11 ar
    19   10   22 1
    20   11   12 ar
    21   11   23 1
    22   12   13 ar
    23   12   24 1
    24   14   15 2
    25   14   25 1
    26   15   26 1
    27   16   18 1
    28   16   17 1
    29   16   27 1
    30   17   18 1
    31   17   28 1
    32   17   29 1
    33   18   30 1
    34   18   31 1
@<TRIPOS>MOLECULE
CHEMBL150424
   37    38     0     0     0
SMALL
USER_CHARGES

@<TRIPOS>ATOM
      1 C1          1.1158   -0.3996   -1.9067 C.3       1 <0>        -0.1698
      2 C2          0.0410    0.6894   -1.9091 C.3       1 <0>         0.0773
      3 C3          0.3463    1.7048   -3.0121 C.3       1 <0>        -0.1511
      4 O1         -1.2372    0.0966   -2.1478 O.3       1 <0>        -0.3303
      5 C4         -1.9771   -0.2201   -1.0654 C.2       1 <0>         0.5272
      6 O2         -1.5892    0.0839    0.0465 O.2       1 <0>        -0.4871
      7 C5         -3.2479   -0.9303   -1.2290 C.2       1 <0>        -0.0289
      8 C6         -3.8591   -1.2444   -2.4257 C.2       1 <0>        -0.0616
      9 C7         -5.0439   -1.9179   -2.1142 C.2       1 <0>        -0.1745
     10 C8         -5.1320   -2.0005   -0.7648 C.2       1 <0>         0.0370
     11 N1         -4.0481   -1.4117   -0.2171 N.pl3     1 <0>        -0.7805
     12 S1         -3.7346   -1.2850    1.4040 S.o2      1 <0>         2.6690
     13 O3         -3.4068    0.0757    1.6491 O.2       1 <0>        -0.8955
     14 O4         -4.7981   -1.9455    2.0761 O.2       1 <0>        -0.9327
     15 C9         -2.2767   -2.2203    1.7272 C.ar      1 <0>        -0.7360
     16 C10        -1.1332   -1.5863    2.1728 C.ar      1 <0>         0.0633
     17 C11         0.0118   -2.3201    2.4273 C.ar      1 <0>        -0.1140
     18 C12         0.0151   -3.6909    2.2359 C.ar      1 <0>        -0.0008
     19 C13        -1.1250   -4.3299    1.7902 C.ar      1 <0>        -0.2021
     20 C14        -2.2779   -3.5964    1.5398 C.ar      1 <0>         0.3167
     21 N2         -3.4350   -4.2412    1.0947 N.pl3     1 <0>        -0.8622
     22 Cl1         1.4471   -1.5200    2.9871 Cl        1 <0>        -0.0611
     23 H1          2.0907    0.0525   -1.7247 H         1 <0>         0.0780
     24 H2          0.8983   -1.1230   -1.1209 H         1 <0>         0.0601
     25 H3          1.1239   -0.9041   -2.8729 H         1 <0>         0.0673
     26 H4          0.0328    1.1939   -0.9430 H         1 <0>         0.0930
     27 H5          0.4419    1.1869   -3.9664 H         1 <0>         0.0684
     28 H6         -0.4646    2.4306   -3.0723 H         1 <0>         0.0667
     29 H7          1.2791    2.2203   -2.7834 H         1 <0>         0.0805
     30 H8         -3.4921   -1.0136   -3.4148 H         1 <0>         0.1654
     31 H9         -5.7616   -2.3035   -2.8232 H         1 <0>         0.1618
     32 H10        -5.9372   -2.4664   -0.2161 H         1 <0>         0.1967
     33 H11        -1.1328   -0.5167    2.3223 H         1 <0>         0.1599
     34 H12         0.9104   -4.2612    2.4350 H         1 <0>         0.1444
     35 H13        -1.1217   -5.3995    1.6407 H         1 <0>         0.1436
     36 H14        -4.2383   -3.7276    0.9163 H         1 <0>         0.3968
     37 H15        -3.4348   -5.2024    0.9641 H         1 <0>         0.4149
@<TRIPOS>BOND
     1    1    2 1
     2    1   23 1
     3    1   24 1
     4    1   25 1
     5    2    3 1
     6    2    4 1
     7    2   26 1
     8    3   27 1
     9    3   28 1
    10    3   29 1
    11    4    5 1
    12    5    6 2
    13    5    7 1
    14    7   11 1
    15    7    8 2
    16    8    9 1
    17    8   30 1
    18    9   10 2
    19    9   31 1
    20   10   11 1
    21   10   32 1
    22   11   12 1
    23   12   13 2
    24   12   14 2
    25   12   15 1
    26   15   20 ar
    27   15   16 ar
    28   16   17 ar
    29   16   33 1
    30   17   18 ar
    31   17   22 1
    32   18   19 ar
    33   18   34 1
    34   19   20 ar
    35   19   35 1
    36   20   21 1
    37   21   36 1
    38   21   37 1
@<TRIPOS>MOLECULE
CHEMBL357183
   39    42     0     0     0
SMALL
USER_CHARGES

@<TRIPOS>ATOM
      1 C1         -0.0187    1.5258    0.0104 C.3       1 <0>        -0.1713
      2 C2          0.0021   -0.0041    0.0020 C.3       1 <0>         0.1367
      3 N1          0.6878   -0.4765   -1.2033 N.pl3     1 <0>        -0.5776
      4 C3         -0.0233   -0.7078   -2.3686 C.ar      1 <0>         0.4158
      5 C4          0.3081   -0.0050   -3.5386 C.ar      1 <0>        -0.2022
      6 C5         -0.3678   -0.3146   -4.7242 C.ar      1 <0>        -0.0003
      7 C6         -1.3668   -1.2719   -4.6822 C.ar      1 <0>        -0.1908
      8 C7         -1.6675   -1.8887   -3.4816 C.ar      1 <0>         0.1516
      9 N2         -1.0033   -1.5985   -2.3798 N.ar      1 <0>        -0.4988
     10 C8          1.3106    1.0635   -3.5229 C.2       1 <0>         0.5777
     11 O1          1.0837    2.0458   -4.2025 O.2       1 <0>        -0.5206
     12 N3          2.4419    1.0547   -2.8336 N.am      1 <0>        -0.5385
     13 C9          2.9155    0.0275   -2.0221 C.ar      1 <0>         0.1106
     14 C10         2.0648   -0.6930   -1.1923 C.ar      1 <0>         0.3692
     15 N4          2.5561   -1.6165   -0.3792 N.ar      1 <0>        -0.4585
     16 C11         3.8516   -1.9115   -0.3539 C.ar      1 <0>         0.2112
     17 C12         4.7467   -1.2510   -1.1926 C.ar      1 <0>        -0.1015
     18 C13         4.2749   -0.2751   -2.0348 C.ar      1 <0>        -0.0823
     19 C14         4.3476   -2.9497    0.5730 C.2       1 <0>         0.1383
     20 N5          5.5848   -3.3884    0.7611 N.2       1 <0>        -0.4845
     21 C15         5.8484   -4.3281    1.6373 C.2       1 <0>         0.0239
     22 C16         4.8412   -4.8706    2.3731 C.2       1 <0>        -0.2004
     23 S1          3.4424   -3.9474    1.7487 S.3       1 <0>         0.0723
     24 C17         3.2823    2.2503   -2.9364 C.3       1 <0>         0.0567
     25 H1          1.0039    1.9031    0.0027 H         1 <0>         0.0544
     26 H2         -0.5459    1.8868   -0.8726 H         1 <0>         0.0548
     27 H3         -0.5289    1.8773    0.9072 H         1 <0>         0.0731
     28 H4          0.5293   -0.3651    0.8851 H         1 <0>         0.0838
     29 H5         -1.0205   -0.3814    0.0098 H         1 <0>         0.0855
     30 H6         -0.1162    0.1818   -5.6498 H         1 <0>         0.1488
     31 H7         -1.9068   -1.5351   -5.5798 H         1 <0>         0.1495
     32 H8         -2.4606   -2.6208   -3.4455 H         1 <0>         0.1685
     33 H9          5.7962   -1.5056   -1.1820 H         1 <0>         0.1600
     34 H10         4.9501    0.2532   -2.6916 H         1 <0>         0.1563
     35 H11         6.8634   -4.6708    1.7742 H         1 <0>         0.1734
     36 H12         4.8768   -5.6421    3.1280 H         1 <0>         0.2025
     37 H13         2.8045    2.9746   -3.5960 H         1 <0>         0.1077
     38 H14         3.4116    2.6896   -1.9473 H         1 <0>         0.0719
     39 H15         4.2560    1.9762   -3.3423 H         1 <0>         0.0731
@<TRIPOS>BOND
     1    1    2 1
     2    1   25 1
     3    1   26 1
     4    1   27 1
     5    2    3 1
     6    2   28 1
     7    2   29 1
     8    3   14 1
     9    3    4 1
    10    4    9 ar
    11    4    5 ar
    12    5    6 ar
    13    5   10 1
    14    6    7 ar
    15    6   30 1
    16    7    8 ar
    17    7   31 1
    18    8    9 ar
    19    8   32 1
    20   10   11 2
    21   10   12 am
    22   12   13 1
    23   12   24 1
    24   13   18 ar
    25   13   14 ar
    26   14   15 ar
    27   15   16 ar
    28   16   17 ar
    29   16   19 1
    30   17   18 ar
    31   17   33 1
    32   18   34 1
    33   19   23 1
    34   19   20 2
    35   20   21 1
    36   21   22 2
    37   21   35 1
    38   22   23 1
    39   22   36 1
    40   24   37 1
    41   24   38 1
    42   24   39 1
@<TRIPOS>MOLECULE
CHEMBL57733
   42    43     0     0     0
SMALL
USER_CHARGES

@<TRIPOS>ATOM
      1 C1          0.0828    1.7599   -0.4004 C.3       1 <0>        -0.1503
      2 C2          0.1699    0.2484   -0.1801 C.3       1 <0>        -0.0811
      3 C3          0.7825   -0.4017   -1.3938 C.2       1 <0>        -0.1225
      4 C4          2.1131   -0.6390   -1.4340 C.2       1 <0>         0.0898
      5 N1          2.6840   -1.2248   -2.5208 N.am      1 <0>        -0.5928
      6 C5          1.9368   -1.5827   -3.5825 C.2       1 <0>         0.5132
      7 C6          0.5439   -1.3502   -3.5745 C.2       1 <0>         0.1059
      8 C7         -0.0287   -0.7655   -2.4786 C.2       1 <0>        -0.0955
      9 C8         -1.5134   -0.5102   -2.4394 C.3       1 <0>        -0.0356
     10 C9         -2.2100   -1.6922   -1.8159 C.ar      1 <0>        -0.0653
     11 C10        -2.4902   -2.8106   -2.5785 C.ar      1 <0>        -0.1223
     12 C11        -3.1292   -3.8948   -2.0066 C.ar      1 <0>        -0.0775
     13 C12        -3.4876   -3.8607   -0.6719 C.ar      1 <0>        -0.1255
     14 C13        -3.2066   -2.7427    0.0909 C.ar      1 <0>        -0.0781
     15 C14        -2.5638   -1.6602   -0.4799 C.ar      1 <0>        -0.1236
     16 C15        -3.5978   -2.7054    1.5458 C.3       1 <0>        -0.1160
     17 C16        -3.4355   -5.1136   -2.8382 C.3       1 <0>        -0.1164
     18 N2         -0.2424   -1.7184   -4.6734 N.pl3     1 <0>        -0.8552
     19 O1          2.4632   -2.1072   -4.5511 O.2       1 <0>        -0.5565
     20 C17         2.9743   -0.2492   -0.2604 C.3       1 <0>        -0.1187
     21 H1          1.0830    2.1618   -0.5619 H         1 <0>         0.0556
     22 H2         -0.5364    1.9647   -1.2738 H         1 <0>         0.0567
     23 H3         -0.3604    2.2301    0.4774 H         1 <0>         0.0584
     24 H4          0.7891    0.0436    0.6933 H         1 <0>         0.0740
     25 H5         -0.8304   -0.1535   -0.0186 H         1 <0>         0.0811
     26 H6         -1.7129    0.3830   -1.8473 H         1 <0>         0.0897
     27 H7         -1.8839   -0.3638   -3.4540 H         1 <0>         0.0761
     28 H8         -2.2102   -2.8372   -3.6212 H         1 <0>         0.1176
     29 H9         -3.9875   -4.7075   -0.2253 H         1 <0>         0.1198
     30 H10        -2.3409   -0.7882    0.1170 H         1 <0>         0.1248
     31 H11        -2.7818   -3.0993    2.1516 H         1 <0>         0.0706
     32 H12        -3.8050   -1.6765    1.8401 H         1 <0>         0.0668
     33 H13        -4.4895   -3.3135    1.6980 H         1 <0>         0.0661
     34 H14        -2.5987   -5.8100   -2.7842 H         1 <0>         0.0702
     35 H15        -4.3353   -5.5966   -2.4572 H         1 <0>         0.0666
     36 H16        -3.5941   -4.8158   -3.8747 H         1 <0>         0.0658
     37 H17         0.1692   -2.1358   -5.4462 H         1 <0>         0.4050
     38 H18        -1.1987   -1.5560   -4.6617 H         1 <0>         0.4001
     39 H19         3.6404   -1.3864   -2.5313 H         1 <0>         0.4153
     40 H20         3.0295   -1.0810    0.4419 H         1 <0>         0.0815
     41 H21         3.9764   -0.0027   -0.6111 H         1 <0>         0.0715
     42 H22         2.5398    0.6180    0.2369 H         1 <0>         0.0907
@<TRIPOS>BOND
     1    1    2 1
     2    1   21 1
     3    1   22 1
     4    1   23 1
     5    2   24 1
     6    2   25 1
     7    2    3 1
     8    3    4 2
     9    3    8 1
    10    4    5 1
    11    4   20 1
    12    5    6 am
    13    5   39 1
    14    6   19 2
    15    6    7 1
    16    7    8 2
    17    7   18 1
    18    8    9 1
    19    9   10 1
    20    9   26 1
    21    9   27 1
    22   10   15 ar
    23   10   11 ar
    24   11   12 ar
    25   11   28 1
    26   12   13 ar
    27   12   17 1
    28   13   14 ar
    29   13   29 1
    30   14   15 ar
    31   14   16 1
    32   15   30 1
    33   16   31 1
    34   16   32 1
    35   16   33 1
    36   17   34 1
    37   17   35 1
    38   17   36 1
    39   18   37 1
    40   18   38 1
    41   20   40 1
    42   20   41 1
    43   20   42 1
@<TRIPOS>MOLECULE
CHEMBL351728
   51    54     0     0     0
SMALL
USER_CHARGES

@<TRIPOS>ATOM
      1 C1         -0.0187    1.5258    0.0104 C.3       1 <0>        -0.1721
      2 C2          0.0021   -0.0041    0.0020 C.3       1 <0>         0.1352
      3 N1          0.6878   -0.4765   -1.2033 N.pl3     1 <0>        -0.5764
      4 C3         -0.0232   -0.7079   -2.3687 C.ar      1 <0>         0.4242
      5 C4          0.3083   -0.0056   -3.5390 C.ar      1 <0>        -0.2006
      6 C5         -0.3675   -0.3155   -4.7245 C.ar      1 <0>         0.0213
      7 C6         -1.3668   -1.2725   -4.6822 C.ar      1 <0>        -0.1524
      8 C7         -1.6677   -1.8889   -3.4814 C.ar      1 <0>         0.1762
      9 N2         -1.0035   -1.5984   -2.3796 N.ar      1 <0>        -0.4928
     10 C8         -2.1202   -1.6401   -5.9345 C.3       1 <0>        -0.0590
     11 S1         -1.2700   -3.0057   -6.7728 S.3       1 <0>         0.0092
     12 C9         -2.2601   -3.3139   -8.1974 C.ar      1 <0>         0.3058
     13 N3         -3.3416   -2.5763   -8.4057 N.ar      1 <0>        -0.5344
     14 C10        -4.1060   -2.7816   -9.4653 C.ar      1 <0>         0.1934
     15 C11        -3.7640   -3.7815  -10.3625 C.ar      1 <0>        -0.2380
     16 C12        -2.6266   -4.5341  -10.1144 C.ar      1 <0>         0.1947
     17 N4         -1.9029   -4.2742   -9.0384 N.ar      1 <0>        -0.5075
     18 C13        -2.2169   -5.6317  -11.0622 C.3       1 <0>        -0.1083
     19 C14        -5.3341   -1.9388   -9.6944 C.3       1 <0>        -0.1079
     20 C15         1.3110    1.0629   -3.5239 C.2       1 <0>         0.5818
     21 O1          1.0846    2.0448   -4.2041 O.2       1 <0>        -0.5192
     22 N5          2.4424    1.0540   -2.8342 N.am      1 <0>        -0.6428
     23 C16         2.9143    0.0253   -2.0200 C.ar      1 <0>         0.0890
     24 C17         2.0649   -0.6931   -1.1924 C.ar      1 <0>         0.3824
     25 N6          2.5591   -1.6175   -0.3786 N.ar      1 <0>        -0.4731
     26 C18         3.8459   -1.9104   -0.3540 C.ar      1 <0>         0.1916
     27 C19         4.7373   -1.2590   -1.1839 C.ar      1 <0>        -0.1397
     28 C20         4.2713   -0.2804   -2.0287 C.ar      1 <0>        -0.0338
     29 C21         5.2192    0.4525   -2.9427 C.3       1 <0>        -0.1224
     30 Cl1         4.4258   -3.1303    0.7365 Cl        1 <0>        -0.0160
     31 H1          1.0039    1.9031    0.0027 H         1 <0>         0.0552
     32 H2         -0.5459    1.8868   -0.8726 H         1 <0>         0.0554
     33 H3         -0.5289    1.8773    0.9072 H         1 <0>         0.0743
     34 H4          0.5293   -0.3651    0.8851 H         1 <0>         0.0857
     35 H5         -1.0205   -0.3814    0.0098 H         1 <0>         0.0869
     36 H6         -0.1158    0.1805   -5.6502 H         1 <0>         0.1531
     37 H7         -2.4607   -2.6211   -3.4452 H         1 <0>         0.1719
     38 H8         -3.1323   -1.9485   -5.6723 H         1 <0>         0.1117
     39 H9         -2.1640   -0.7770   -6.5987 H         1 <0>         0.1097
     40 H10        -4.3709   -3.9703  -11.2356 H         1 <0>         0.1495
     41 H11        -1.5560   -5.2236  -11.8269 H         1 <0>         0.0886
     42 H12        -1.6945   -6.4127  -10.5097 H         1 <0>         0.0851
     43 H13        -3.1038   -6.0529  -11.5356 H         1 <0>         0.0839
     44 H14        -5.0683   -1.0624  -10.2854 H         1 <0>         0.0879
     45 H15        -6.0820   -2.5244  -10.2291 H         1 <0>         0.0836
     46 H16        -5.7404   -1.6202   -8.7345 H         1 <0>         0.0835
     47 H17         2.9997    1.8449   -2.9026 H         1 <0>         0.4149
     48 H18         5.7859   -1.5173   -1.1700 H         1 <0>         0.1585
     49 H19         5.6107    1.3316   -2.4308 H         1 <0>         0.0882
     50 H20         6.0436   -0.2065   -3.2151 H         1 <0>         0.0871
     51 H21         4.6889    0.7624   -3.8431 H         1 <0>         0.0768
@<TRIPOS>BOND
     1    1    2 1
     2    1   31 1
     3    1   32 1
     4    1   33 1
     5    2    3 1
     6    2   34 1
     7    2   35 1
     8    3   24 1
     9    3    4 1
    10    4    9 ar
    11    4    5 ar
    12    5    6 ar
    13    5   20 1
    14    6    7 ar
    15    6   36 1
    16    7    8 ar
    17    7   10 1
    18    8    9 ar
    19    8   37 1
    20   10   11 1
    21   10   38 1
    22   10   39 1
    23   11   12 1
    24   12   17 ar
    25   12   13 ar
    26   13   14 ar
    27   14   15 ar
    28   14   19 1
    29   15   16 ar
    30   15   40 1
    31   16   17 ar
    32   16   18 1
    33   18   41 1
    34   18   42 1
    35   18   43 1
    36   19   44 1
    37   19   45 1
    38   19   46 1
    39   20   21 2
    40   20   22 am
    41   22   23 1
    42   22   47 1
    43   23   28 ar
    44   23   24 ar
    45   24   25 ar
    46   25   26 ar
    47   26   27 ar
    48   26   30 1
    49   27   28 ar
    50   27   48 1
    51   28   29 1
    52   29   49 1
    53   29   50 1
    54   29   51 1
@<TRIPOS>MOLECULE
CHEMBL326347
   90    90     0     0     0
SMALL
USER_CHARGES

@<TRIPOS>ATOM
      1 C1          3.0212   -1.4265   -2.0217 C.3       1 <0>        -0.1501
      2 C2          2.2707   -2.7284   -2.3092 C.3       1 <0>        -0.0950
      3 C3          0.7646   -2.4593   -2.3105 C.3       1 <0>        -0.1473
      4 C4          2.6933   -3.2694   -3.6766 C.3       1 <0>        -0.1092
      5 C5          4.1733   -3.6556   -3.6370 C.3       1 <0>         0.0354
      6 N1          4.5528   -4.2719   -4.9153 N.3       1 <0>        -0.2773
      7 C6          5.9449   -4.7399   -4.8814 C.3       1 <0>        -0.0013
      8 C7          6.2352   -5.5682   -6.1346 C.3       1 <0>         0.1117
      9 H1          6.0802   -4.9528   -7.0208 H         1 <0>         0.1085
     10 C8          7.6851   -6.0555   -6.0992 C.3       1 <0>         0.1236
     11 H2          8.3562   -5.1972   -6.0675 H         1 <0>         0.0987
     12 C9          7.9754   -6.8838   -7.3524 C.3       1 <0>        -0.0873
     13 C10         9.4343   -7.2606   -7.3787 C.ar      1 <0>        -0.0627
     14 C11        10.3522   -6.4279   -7.9912 C.ar      1 <0>        -0.1074
     15 C12        11.6904   -6.7735   -8.0153 C.ar      1 <0>        -0.1121
     16 C13        12.1108   -7.9514   -7.4266 C.ar      1 <0>        -0.1199
     17 C14        11.1931   -8.7837   -6.8134 C.ar      1 <0>        -0.1127
     18 C15         9.8554   -8.4360   -6.7855 C.ar      1 <0>        -0.1072
     19 N2          7.8933   -6.8826   -4.9081 N.am      1 <0>        -0.7227
     20 C16         9.1279   -7.0079   -4.3821 C.2       1 <0>         0.5158
     21 O1         10.0804   -6.5120   -4.9458 O.2       1 <0>        -0.4996
     22 C17         9.3247   -7.7642   -3.0936 C.3       1 <0>         0.1534
     23 H3          8.5844   -8.5611   -3.0233 H         1 <0>         0.1089
     24 C18         9.1589   -6.8082   -1.9107 C.3       1 <0>        -0.0995
     25 C19         7.7195   -6.2909   -1.8709 C.3       1 <0>        -0.1562
     26 C20         9.4708   -7.5489   -0.6087 C.3       1 <0>        -0.1388
     27 N3         10.6700   -8.3438   -3.0682 N.am      1 <0>        -0.6924
     28 C21        10.9195   -9.4352   -2.3177 C.2       1 <0>         0.6508
     29 O2         10.0286   -9.9383   -1.6622 O.2       1 <0>        -0.5646
     30 O3         12.1558   -9.9678   -2.2943 O.3       1 <0>        -0.3644
     31 C22        12.3486  -11.1241   -1.4772 C.3       1 <0>         0.0541
     32 O4          5.3553   -6.6934   -6.1762 O.3       1 <0>        -0.5258
     33 N4          4.3520   -3.4079   -5.9541 N.am      1 <0>        -0.5790
     34 C23         3.4519   -3.7039   -6.9126 C.2       1 <0>         0.5353
     35 O5          2.7506   -4.6873   -6.8029 O.2       1 <0>        -0.4850
     36 C24         3.3168   -2.8131   -8.1205 C.3       1 <0>         0.1538
     37 H4          4.3019   -2.4549   -8.4198 H         1 <0>         0.1107
     38 C25         2.4230   -1.6198   -7.7768 C.3       1 <0>        -0.1028
     39 C26         1.0791   -2.1249   -7.2480 C.3       1 <0>        -0.1516
     40 C27         3.1035   -0.7646   -6.7061 C.3       1 <0>        -0.1596
     41 N5          2.7175   -3.5710   -9.2217 N.am      1 <0>        -0.6914
     42 C28         2.9438   -3.1992  -10.4973 C.2       1 <0>         0.6516
     43 O6          3.6448   -2.2353  -10.7339 O.2       1 <0>        -0.5695
     44 O7          2.3930   -3.8957  -11.5093 O.3       1 <0>        -0.3625
     45 C29         2.6751   -3.4454  -12.8358 C.3       1 <0>         0.0537
     46 H5          4.0942   -1.6183   -2.0207 H         1 <0>         0.0525
     47 H6          2.7840   -0.6927   -2.7919 H         1 <0>         0.0537
     48 H7          2.7202   -1.0411   -1.0476 H         1 <0>         0.0547
     49 H8          2.5080   -3.4623   -1.5390 H         1 <0>         0.0700
     50 H9          0.5273   -1.7254   -3.0808 H         1 <0>         0.0536
     51 H10         0.2299   -3.3868   -2.5154 H         1 <0>         0.0558
     52 H11         0.4635   -2.0739   -1.3364 H         1 <0>         0.0548
     53 H12         2.0951   -4.1473   -3.9207 H         1 <0>         0.0769
     54 H13         2.5382   -2.5018   -4.4347 H         1 <0>         0.0637
     55 H14         4.7772   -2.7637   -3.4702 H         1 <0>         0.0436
     56 H15         4.3420   -4.3654   -2.8272 H         1 <0>         0.0892
     57 H16         6.6160   -3.8816   -4.8496 H         1 <0>         0.0547
     58 H17         6.0998   -5.3552   -3.9952 H         1 <0>         0.0974
     59 H18         7.3668   -7.7881   -7.3393 H         1 <0>         0.0826
     60 H19         7.7355   -6.2973   -8.2393 H         1 <0>         0.0808
     61 H20        10.0238   -5.5076   -8.4511 H         1 <0>         0.1126
     62 H21        12.4075   -6.1233   -8.4944 H         1 <0>         0.1153
     63 H22        13.1563   -8.2218   -7.4461 H         1 <0>         0.1150
     64 H23        11.5215   -9.7041   -6.3538 H         1 <0>         0.1120
     65 H24         9.1389   -9.0844   -6.3032 H         1 <0>         0.1064
     66 H25         7.1427   -7.3401   -4.4980 H         1 <0>         0.3973
     67 H26         9.8439   -5.9680   -2.0238 H         1 <0>         0.0790
     68 H27         7.0370   -7.1271   -1.7188 H         1 <0>         0.0641
     69 H28         7.6114   -5.5800   -1.0517 H         1 <0>         0.0669
     70 H29         7.4847   -5.7972   -2.8138 H         1 <0>         0.0576
     71 H30        10.4962   -7.9174   -0.6371 H         1 <0>         0.0503
     72 H31         9.3526   -6.8678    0.2340 H         1 <0>         0.0544
     73 H32         8.7857   -8.3891   -0.4956 H         1 <0>         0.0710
     74 H33        11.3811   -7.9422   -3.5915 H         1 <0>         0.4167
     75 H34        13.3861  -11.4507   -1.5488 H         1 <0>         0.1044
     76 H35        12.1154  -10.8797   -0.4409 H         1 <0>         0.0619
     77 H36        11.6915  -11.9240   -1.8185 H         1 <0>         0.0619
     78 H37         5.4386   -7.2862   -5.4168 H         1 <0>         0.3660
     79 H38         4.8572   -2.5812   -6.0019 H         1 <0>         0.3793
     80 H39         2.2589   -1.0192   -8.6715 H         1 <0>         0.0914
     81 H40         1.2333   -2.6471   -6.3037 H         1 <0>         0.0608
     82 H41         0.4096   -1.2793   -7.0905 H         1 <0>         0.0605
     83 H42         0.6370   -2.8082   -7.9731 H         1 <0>         0.0603
     84 H43         3.2118   -1.3465   -5.7909 H         1 <0>         0.0611
     85 H44         4.0875   -0.4558   -7.0590 H         1 <0>         0.0616
     86 H45         2.4959    0.1180   -6.5058 H         1 <0>         0.0695
     87 H46         2.1579   -4.3404   -9.0328 H         1 <0>         0.4186
     88 H47         2.3182   -2.4226  -12.9559 H         1 <0>         0.0621
     89 H48         3.7507   -3.4776  -13.0094 H         1 <0>         0.0619
     90 H49         2.1716   -4.0926  -13.5540 H         1 <0>         0.1054
@<TRIPOS>BOND
     1    1    2 1
     2    1   46 1
     3    1   47 1
     4    1   48 1
     5    2    3 1
     6    2    4 1
     7    2   49 1
     8    3   50 1
     9    3   51 1
    10    3   52 1
    11    4    5 1
    12    4   53 1
    13    4   54 1
    14    5    6 1
    15    5   55 1
    16    5   56 1
    17    6    7 1
    18    6   33 1
    19    7    8 1
    20    7   57 1
    21    7   58 1
    22    8    9 1
    23    8   10 1
    24    8   32 1
    25   10   11 1
    26   10   12 1
    27   10   19 1
    28   12   13 1
    29   12   59 1
    30   12   60 1
    31   13   18 ar
    32   13   14 ar
    33   14   15 ar
    34   14   61 1
    35   15   16 ar
    36   15   62 1
    37   16   17 ar
    38   16   63 1
    39   17   18 ar
    40   17   64 1
    41   18   65 1
    42   19   20 am
    43   19   66 1
    44   20   21 2
    45   20   22 1
    46   22   23 1
    47   22   24 1
    48   22   27 1
    49   24   25 1
    50   24   26 1
    51   24   67 1
    52   25   68 1
    53   25   69 1
    54   25   70 1
    55   26   71 1
    56   26   72 1
    57   26   73 1
    58   27   28 am
    59   27   74 1
    60   28   29 2
    61   28   30 1
    62   30   31 1
    63   31   75 1
    64   31   76 1
    65   31   77 1
    66   32   78 1
    67   33   34 am
    68   33   79 1
    69   34   35 2
    70   34   36 1
    71   36   37 1
    72   36   38 1
    73   36   41 1
    74   38   39 1
    75   38   40 1
    76   38   80 1
    77   39   81 1
    78   39   82 1
    79   39   83 1
    80   40   84 1
    81   40   85 1
    82   40   86 1
    83   41   42 am
    84   41   87 1
    85   42   43 2
    86   42   44 1
    87   44   45 1
    88   45   88 1
    89   45   89 1
    90   45   90 1
@<TRIPOS>MOLECULE
CHEMBL125112
   81    85     0     0     0
SMALL
USER_CHARGES

@<TRIPOS>ATOM
      1 C1         -1.5287   -2.2208    4.3428 C.3       1 <0>        -0.1713
      2 C2         -1.1133   -2.5744    2.9133 C.3       1 <0>         0.1043
      3 N1         -2.0112   -1.9099    1.9654 N.pl3     1 <0>        -0.7045
      4 C3         -1.8284   -2.0840    0.5882 C.ar      1 <0>         0.2214
      5 C4         -0.7301   -2.7834    0.1057 C.ar      1 <0>        -0.0841
      6 C5         -0.5914   -2.9308   -1.2679 C.ar      1 <0>        -0.0752
      7 C6         -1.5404   -2.3829   -2.1069 C.ar      1 <0>         0.0740
      8 N2         -2.5759   -1.7221   -1.6226 N.ar      1 <0>        -0.4163
      9 C7         -2.7512   -1.5617   -0.3215 C.ar      1 <0>         0.3141
     10 N3         -3.8615   -0.8620    0.1452 N.pl3     1 <0>        -0.6603
     11 C8         -3.7759    0.5835    0.3676 C.3       1 <0>         0.1215
     12 C9         -4.0186    1.3179   -0.9526 C.3       1 <0>        -0.1823
     13 C10        -5.1148   -1.5715    0.4136 C.3       1 <0>         0.1642
     14 C11        -5.4467   -1.4738    1.9044 C.3       1 <0>        -0.1468
     15 C12        -6.7393   -2.2458    2.1872 C.3       1 <0>         0.1154
     16 N4         -7.7956   -1.7410    1.2995 N.am      1 <0>        -0.6160
     17 C13        -7.5451   -1.7059   -0.1478 C.3       1 <0>         0.0825
     18 C14        -6.2435   -0.9399   -0.4045 C.3       1 <0>        -0.1457
     19 C15        -8.9721   -1.3185    1.8032 C.2       1 <0>         0.5903
     20 O1         -9.1257   -1.2416    3.0075 O.2       1 <0>        -0.5067
     21 C16       -10.0702   -0.9505    0.8969 C.2       1 <0>         0.0101
     22 C17       -11.1246   -0.1562    1.2190 C.2       1 <0>        -0.0944
     23 C18       -11.9505   -0.0497    0.0738 C.ar      1 <0>        -0.1016
     24 C19       -13.1518    0.6239   -0.1847 C.ar      1 <0>        -0.0707
     25 C20       -13.7305    0.5328   -1.4344 C.ar      1 <0>         0.1249
     26 C21       -13.1252   -0.2253   -2.4373 C.ar      1 <0>        -0.1121
     27 C22       -11.9461   -0.8916   -2.1959 C.ar      1 <0>        -0.1088
     28 C23       -11.3449   -0.8130   -0.9426 C.ar      1 <0>         0.1061
     29 N5        -10.1911   -1.3524   -0.4189 N.pl3     1 <0>        -0.5846
     30 H1         -9.5670   -1.9221   -0.8951 H         1 <0>         0.4198
     31 N6        -14.9305    1.2036   -1.6967 N.pl3     1 <0>        -1.0674
     32 S1        -15.0969    2.0901   -3.0855 S.o2      1 <0>         2.7823
     33 O2        -14.7234    1.2372   -4.1590 O.2       1 <0>        -0.9658
     34 O3        -16.3709    2.7159   -3.0176 O.2       1 <0>        -0.9631
     35 N7        -13.9705    3.3027   -3.0304 N.pl3     1 <0>        -1.0012
     36 C24       -14.2454    4.5564   -2.3123 C.3       1 <0>         0.1263
     37 C25       -13.0785    4.8378   -1.3598 C.3       1 <0>         0.0409
     38 N8        -11.8186    4.8179   -2.1148 N.3       1 <0>        -0.5390
     39 C26       -11.5636    3.4910   -2.6912 C.3       1 <0>         0.0432
     40 C27       -12.6661    3.1520   -3.6932 C.3       1 <0>         0.1244
     41 C28       -10.6944    5.2517   -1.2745 C.3       1 <0>         0.0266
     42 H2         -0.8607   -2.7152    5.0481 H         1 <0>         0.0886
     43 H3         -1.4695   -1.1413    4.4819 H         1 <0>         0.0678
     44 H4         -2.5518   -2.5539    4.5168 H         1 <0>         0.0676
     45 H5         -0.0902   -2.2412    2.7393 H         1 <0>         0.0782
     46 H6         -1.1726   -3.6538    2.7742 H         1 <0>         0.0787
     47 H7         -2.7323   -1.3493    2.2919 H         1 <0>         0.4154
     48 H8         -0.0008   -3.2027    0.7829 H         1 <0>         0.1716
     49 H9          0.2514   -3.4688   -1.6760 H         1 <0>         0.1851
     50 H10        -1.4342   -2.4960   -3.1757 H         1 <0>         0.2042
     51 H11        -4.5300    0.8845    1.0948 H         1 <0>         0.0955
     52 H12        -2.7852    0.8348    0.7463 H         1 <0>         0.0744
     53 H13        -3.9550    2.3934   -0.7871 H         1 <0>         0.0788
     54 H14        -3.2645    1.0169   -1.6798 H         1 <0>         0.0478
     55 H15        -5.0093    1.0666   -1.3313 H         1 <0>         0.0681
     56 H16        -5.0059   -2.6193    0.1339 H         1 <0>         0.0884
     57 H17        -4.6318   -1.9027    2.4874 H         1 <0>         0.0795
     58 H18        -5.5802   -0.4276    2.1796 H         1 <0>         0.0815
     59 H19        -6.5796   -3.3074    1.9983 H         1 <0>         0.0744
     60 H20        -7.0335   -2.0977    3.2263 H         1 <0>         0.1068
     61 H21        -7.4511   -2.7235   -0.5272 H         1 <0>         0.0777
     62 H22        -8.3709   -1.2015   -0.6495 H         1 <0>         0.1052
     63 H23        -6.3694    0.1012   -0.1076 H         1 <0>         0.0849
     64 H24        -5.9956   -0.9889   -1.4648 H         1 <0>         0.0815
     65 H25       -11.3010    0.3105    2.1768 H         1 <0>         0.1571
     66 H26       -13.6225    1.2111    0.5899 H         1 <0>         0.1328
     67 H27       -13.5866   -0.2898   -3.4116 H         1 <0>         0.1623
     68 H28       -11.4863   -1.4758   -2.9792 H         1 <0>         0.1319
     69 H29       -15.6646    1.1493   -1.0651 H         1 <0>         0.4260
     70 H30       -14.3404    5.3743   -3.0266 H         1 <0>         0.0862
     71 H31       -15.1684    4.4564   -1.7411 H         1 <0>         0.0913
     72 H32       -13.2119    5.8173   -0.9005 H         1 <0>         0.0898
     73 H33       -13.0497    4.0727   -0.5839 H         1 <0>         0.0404
     74 H34       -10.5984    3.4938   -3.1976 H         1 <0>         0.0840
     75 H35       -11.5559    2.7447   -1.8968 H         1 <0>         0.0402
     76 H36       -12.5454    2.1239   -4.0345 H         1 <0>         0.0941
     77 H37       -12.6064    3.8323   -4.5428 H         1 <0>         0.0833
     78 H38       -10.6002    4.5820   -0.4197 H         1 <0>         0.0247
     79 H39        -9.7741    5.2276   -1.8581 H         1 <0>         0.0675
     80 H40       -10.8748    6.2673   -0.9223 H         1 <0>         0.0717
     81 H41        -3.2267   -1.3477   -2.2367 H         1 <0>         0.4405
@<TRIPOS>BOND
     1    1    2 1
     2    1   42 1
     3    1   43 1
     4    1   44 1
     5    2    3 1
     6    2   45 1
     7    2   46 1
     8    3    4 1
     9    3   47 1
    10    4    9 ar
    11    4    5 ar
    12    5    6 ar
    13    5   48 1
    14    6    7 ar
    15    6   49 1
    16    7    8 ar
    17    7   50 1
    18    8    9 ar
    19    8   81 1
    20    9   10 1
    21   10   11 1
    22   10   13 1
    23   11   12 1
    24   11   51 1
    25   11   52 1
    26   12   53 1
    27   12   54 1
    28   12   55 1
    29   13   18 1
    30   13   14 1
    31   13   56 1
    32   14   15 1
    33   14   57 1
    34   14   58 1
    35   15   16 1
    36   15   59 1
    37   15   60 1
    38   16   17 1
    39   16   19 am
    40   17   18 1
    41   17   61 1
    42   17   62 1
    43   18   63 1
    44   18   64 1
    45   19   20 2
    46   19   21 1
    47   21   29 1
    48   21   22 2
    49   22   23 1
    50   22   65 1
    51   23   28 ar
    52   23   24 ar
    53   24   25 ar
    54   24   66 1
    55   25   26 ar
    56   25   31 1
    57   26   27 ar
    58   26   67 1
    59   27   28 ar
    60   27   68 1
    61   28   29 1
    62   29   30 1
    63   31   32 1
    64   31   69 1
    65   32   33 2
    66   32   34 2
    67   32   35 1
    68   35   40 1
    69   35   36 1
    70   36   37 1
    71   36   70 1
    72   36   71 1
    73   37   38 1
    74   37   72 1
    75   37   73 1
    76   38   39 1
    77   38   41 1
    78   39   40 1
    79   39   74 1
    80   39   75 1
    81   40   76 1
    82   40   77 1
    83   41   78 1
    84   41   79 1
    85   41   80 1
@<TRIPOS>MOLECULE
CHEMBL125112__1
   82    86     0     0     0
SMALL
USER_CHARGES

@<TRIPOS>ATOM
      1 C1          4.5893   -2.0937   -0.8361 C.3       1 <0>        -0.1711
      2 C2          3.1525   -2.4819   -0.4814 C.3       1 <0>         0.1029
      3 N1          2.7634   -1.8244    0.7686 N.pl3     1 <0>        -0.7037
      4 C3          1.4836   -2.0290    1.2983 C.ar      1 <0>         0.2225
      5 C4          0.5345   -2.7532    0.5891 C.ar      1 <0>        -0.0815
      6 C5         -0.7208   -2.9303    1.1552 C.ar      1 <0>        -0.0734
      7 C6         -0.9872   -2.3864    2.3953 C.ar      1 <0>         0.0762
      8 N2         -0.0670   -1.7016    3.0493 N.ar      1 <0>        -0.4164
      9 C7          1.1435   -1.5125    2.5512 C.ar      1 <0>         0.3069
     10 N3          2.0848   -0.7881    3.2787 N.pl3     1 <0>        -0.6594
     11 C8          2.1994    0.6602    3.0907 C.3       1 <0>         0.1214
     12 C9          1.1592    1.3710    3.9589 C.3       1 <0>        -0.1808
     13 C10         2.9603   -1.4746    4.2318 C.3       1 <0>         0.1633
     14 C11         4.4149   -1.3421    3.7748 C.3       1 <0>        -0.1470
     15 C12         5.3240   -2.0903    4.7549 C.3       1 <0>         0.1138
     16 N4          5.0700   -1.5889    6.1124 N.am      1 <0>        -0.6141
     17 C13         3.6905   -1.5866    6.6180 C.3       1 <0>         0.0826
     18 C14         2.7997   -0.8441    5.6171 C.3       1 <0>        -0.1438
     19 C15         6.0832   -1.1400    6.8794 C.2       1 <0>         0.5849
     20 O1          7.2011   -1.0366    6.4109 O.2       1 <0>        -0.5008
     21 C16         5.8374   -0.7752    8.2826 C.2       1 <0>         0.0239
     22 C17         6.6232    0.0401    9.0338 C.2       1 <0>        -0.1032
     23 C18         6.0410    0.1348   10.3210 C.ar      1 <0>        -0.1018
     24 C19         6.4002    0.8197   11.4896 C.ar      1 <0>        -0.0749
     25 C20         5.6090    0.7114   12.6152 C.ar      1 <0>         0.1120
     26 C21         4.4567   -0.0752   12.5930 C.ar      1 <0>        -0.1211
     27 C22         4.0935   -0.7529   11.4522 C.ar      1 <0>        -0.1023
     28 C23         4.8770   -0.6573   10.3053 C.ar      1 <0>         0.1045
     29 N5          4.7679   -1.2019    9.0452 N.pl3     1 <0>        -0.5815
     30 H1          4.0578   -1.7898    8.7434 H         1 <0>         0.4234
     31 N6          5.9643    1.3933   13.7845 N.pl3     1 <0>        -1.0618
     32 S1          4.8227    2.2536   14.6207 S.o2      1 <0>         2.7807
     33 O2          3.7281    1.3734   14.8360 O.2       1 <0>        -0.9480
     34 O3          5.5024    2.8995   15.6884 O.2       1 <0>        -0.9456
     35 N7          4.2770    3.4502   13.6143 N.pl3     1 <0>        -1.0155
     36 C24         5.0038    4.7231   13.4891 C.3       1 <0>         0.0976
     37 C25         5.2205    5.0142   12.0004 C.3       1 <0>        -0.0229
     38 N8          3.9285    4.9829   11.3034 N.4       1 <0>        -0.3828
     39 C26         3.3610    3.6299   11.3628 C.3       1 <0>        -0.0224
     40 C27         3.0552    3.2680   12.8156 C.3       1 <0>         0.0945
     41 C28         4.1221    5.3695    9.8995 C.3       1 <0>        -0.0467
     42 H2          5.2589   -2.4091   -0.0360 H         1 <0>         0.0671
     43 H3          4.8788   -2.5828   -1.7662 H         1 <0>         0.0901
     44 H4          4.6537   -1.0125   -0.9589 H         1 <0>         0.0676
     45 H5          2.4828   -2.1665   -1.2815 H         1 <0>         0.0796
     46 H6          3.0880   -3.5630   -0.3587 H         1 <0>         0.0800
     47 H7          3.3924   -1.2474    1.2293 H         1 <0>         0.4143
     48 H8          0.7673   -3.1687   -0.3802 H         1 <0>         0.1731
     49 H9         -1.4818   -3.4881    0.6298 H         1 <0>         0.1867
     50 H10        -1.9632   -2.5227    2.8373 H         1 <0>         0.2052
     51 H11         3.1983    0.9863    3.3803 H         1 <0>         0.0938
     52 H12         2.0267    0.9054    2.0428 H         1 <0>         0.0758
     53 H13         1.2444    2.4487    3.8190 H         1 <0>         0.0771
     54 H14         0.1602    1.0449    3.6693 H         1 <0>         0.0494
     55 H15         1.3319    1.1259    5.0068 H         1 <0>         0.0649
     56 H16         2.6894   -2.5293    4.2792 H         1 <0>         0.0898
     57 H17         4.5236   -1.7704    2.7784 H         1 <0>         0.0821
     58 H18         4.6943   -0.2888    3.7510 H         1 <0>         0.0808
     59 H19         5.1067   -3.1576    4.7129 H         1 <0>         0.0774
     60 H20         6.3672   -1.9170    4.4906 H         1 <0>         0.1083
     61 H21         3.3399   -2.6128    6.7280 H         1 <0>         0.0799
     62 H22         3.6558   -1.0811    7.5831 H         1 <0>         0.1009
     63 H23         3.0943    0.2045    5.5759 H         1 <0>         0.0827
     64 H24         1.7587   -0.9180    5.9319 H         1 <0>         0.0814
     65 H25         7.5295    0.5285    8.7074 H         1 <0>         0.1597
     66 H26         7.2918    1.4289   11.5094 H         1 <0>         0.1348
     67 H27         3.8447   -0.1531   13.4794 H         1 <0>         0.1630
     68 H28         3.1998   -1.3592   11.4462 H         1 <0>         0.1353
     69 H29         6.8792    1.3621   14.1052 H         1 <0>         0.4318
     70 H30         4.4176    5.5251   13.9376 H         1 <0>         0.1064
     71 H31         5.9681    4.6452   13.9912 H         1 <0>         0.1334
     72 H32         5.6721    5.9995   11.8848 H         1 <0>         0.1475
     73 H33         5.8815    4.2591   11.5749 H         1 <0>         0.1349
     74 H34         2.4422    3.5952   10.7772 H         1 <0>         0.1430
     75 H35         4.0782    2.9167   10.9565 H         1 <0>         0.1339
     76 H36         2.7318    2.2287   12.8727 H         1 <0>         0.1358
     77 H37         2.2689    3.9207   13.1949 H         1 <0>         0.1043
     78 H38         4.8103    4.6720    9.4220 H         1 <0>         0.1214
     79 H39         3.1637    5.3467    9.3808 H         1 <0>         0.1238
     80 H40         4.5360    6.3769    9.8538 H         1 <0>         0.1277
     81 H41        -0.2832   -1.3308    3.9192 H         1 <0>         0.4390
     82 H42         3.2942    5.6320   11.7441 H         1 <0>         0.4278
@<TRIPOS>BOND
     1    1    2 1
     2    1   42 1
     3    1   43 1
     4    1   44 1
     5    2    3 1
     6    2   45 1
     7    2   46 1
     8    3    4 1
     9    3   47 1
    10    4    9 ar
    11    4    5 ar
    12    5    6 ar
    13    5   48 1
    14    6    7 ar
    15    6   49 1
    16    7    8 ar
    17    7   50 1
    18    8    9 ar
    19    8   81 1
    20    9   10 1
    21   10   11 1
    22   10   13 1
    23   11   12 1
    24   11   51 1
    25   11   52 1
    26   12   53 1
    27   12   54 1
    28   12   55 1
    29   13   18 1
    30   13   14 1
    31   13   56 1
    32   14   15 1
    33   14   57 1
    34   14   58 1
    35   15   16 1
    36   15   59 1
    37   15   60 1
    38   16   17 1
    39   16   19 am
    40   17   18 1
    41   17   61 1
    42   17   62 1
    43   18   63 1
    44   18   64 1
    45   19   20 2
    46   19   21 1
    47   21   29 1
    48   21   22 2
    49   22   23 1
    50   22   65 1
    51   23   28 ar
    52   23   24 ar
    53   24   25 ar
    54   24   66 1
    55   25   26 ar
    56   25   31 1
    57   26   27 ar
    58   26   67 1
    59   27   28 ar
    60   27   68 1
    61   28   29 1
    62   29   30 1
    63   31   32 1
    64   31   69 1
    65   32   33 2
    66   32   34 2
    67   32   35 1
    68   35   40 1
    69   35   36 1
    70   36   37 1
    71   36   70 1
    72   36   71 1
    73   37   38 1
    74   37   72 1
    75   37   73 1
    76   38   39 1
    77   38   41 1
    78   38   82 1
    79   39   40 1
    80   39   74 1
    81   39   75 1
    82   40   76 1
    83   40   77 1
    84   41   78 1
    85   41   79 1
    86   41   80 1
@<TRIPOS>MOLECULE
CHEMBL337050
   28    29     0     0     0
SMALL
USER_CHARGES

@<TRIPOS>ATOM
      1 C1         -0.0164    1.3603    0.0095 C.2       1 <0>         0.1658
      2 C2          1.1568    2.0383    0.0020 C.2       1 <0>        -0.0879
      3 C3          2.3661    1.3106   -0.0135 C.2       1 <0>         0.4941
      4 N1          2.3335   -0.0154   -0.0203 N.2       1 <0>        -0.5933
      5 C4          1.1725   -0.6678   -0.0127 C.2       1 <0>         0.6464
      6 O1          1.1701   -1.8878   -0.0188 O.2       1 <0>        -0.5061
      7 N2          0.0021   -0.0041    0.0020 N.am      1 <0>        -0.5238
      8 C5         -1.2587   -0.7501    0.0105 C.3       1 <0>         0.1306
      9 H1         -2.0844   -0.0385    0.0099 H         1 <0>         0.1107
     10 C6         -1.3282   -1.5796    1.2919 C.3       1 <0>        -0.1320
     11 C7         -2.1932   -2.8508    1.0648 C.3       1 <0>        -0.0316
     12 H2         -3.2575   -2.6166    1.0885 H         1 <0>         0.1069
     13 S1         -1.6402   -3.2988   -0.6393 S.3       1 <0>        -0.2433
     14 C8         -1.3383   -1.6000   -1.2726 C.3       1 <0>        -0.0760
     15 C9         -1.8459   -3.9490    2.0719 C.3       1 <0>         0.0966
     16 O2         -1.9695   -3.4345    3.3993 O.3       1 <0>        -0.5705
     17 N3          3.5724    1.9732   -0.0219 N.pl3     1 <0>        -0.8055
     18 F1          1.1688    3.3892    0.0087 F         1 <0>        -0.1212
     19 H3         -0.9554    1.8938    0.0258 H         1 <0>         0.1859
     20 H4         -0.3210   -1.8763    1.5845 H         1 <0>         0.1015
     21 H5         -1.7711   -0.9792    2.0866 H         1 <0>         0.0907
     22 H6         -2.1672   -1.2726   -1.9002 H         1 <0>         0.1050
     23 H7         -0.3979   -1.5563   -1.8220 H         1 <0>         0.1101
     24 H8         -2.5281   -4.7892    1.9429 H         1 <0>         0.0575
     25 H9         -0.8219   -4.2836    1.9058 H         1 <0>         0.0637
     26 H10        -1.7638   -4.0778    4.0913 H         1 <0>         0.3866
     27 H11         3.5931    2.9429   -0.0172 H         1 <0>         0.4196
     28 H12         4.4018    1.4704   -0.0325 H         1 <0>         0.4195
@<TRIPOS>BOND
     1    1    7 1
     2    1    2 2
     3    1   19 1
     4    2    3 1
     5    2   18 1
     6    3    4 2
     7    3   17 1
     8    4    5 1
     9    5    6 2
    10    5    7 am
    11    7    8 1
    12    8    9 1
    13    8   14 1
    14    8   10 1
    15   10   11 1
    16   10   20 1
    17   10   21 1
    18   11   12 1
    19   11   13 1
    20   11   15 1
    21   13   14 1
    22   14   22 1
    23   14   23 1
    24   15   16 1
    25   15   24 1
    26   15   25 1
    27   16   26 1
    28   17   27 1
    29   17   28 1
@<TRIPOS>MOLECULE
CHEMBL56135
   31    32     0     0     0
SMALL
USER_CHARGES

@<TRIPOS>ATOM
      1 C1         -0.0184    1.5028    0.0103 C.3       1 <0>        -0.1178
      2 C2          0.0021   -0.0041    0.0020 C.ar      1 <0>        -0.0919
      3 C3          0.0058   -0.6887   -1.1992 C.ar      1 <0>        -0.0173
      4 C4          0.0245   -2.0707   -1.2074 C.ar      1 <0>        -0.6531
      5 C5          0.0396   -2.7691   -0.0145 C.ar      1 <0>         0.0042
      6 C6          0.0363   -2.0847    1.1873 C.ar      1 <0>        -0.1078
      7 C7          0.0229   -0.7013    1.1950 C.ar      1 <0>        -0.0347
      8 Br1         0.0562   -3.0394    2.8195 Br        1 <0>        -0.0307
      9 S1          0.0287   -2.9425   -2.7386 S.o2      1 <0>         2.5727
     10 O1         -0.5033   -4.2331   -2.4726 O.2       1 <0>        -0.9213
     11 O2         -0.5390   -2.0689   -3.7049 O.2       1 <0>        -0.9201
     12 C8          1.7129   -3.1774   -3.1998 C.ar      1 <0>        -0.5719
     13 C9          2.2385   -4.4498   -3.2687 C.ar      1 <0>        -0.0718
     14 C10         3.5619   -4.6417   -3.6301 C.ar      1 <0>        -0.0572
     15 C11         4.3697   -3.5617   -3.9254 C.ar      1 <0>        -0.1409
     16 C12         3.8581   -2.2725   -3.8620 C.ar      1 <0>         0.2557
     17 C13         2.5157   -2.0747   -3.5016 C.ar      1 <0>        -0.0276
     18 C14         1.9743   -0.7506   -3.4382 C.1       1 <0>         0.2242
     19 N1          1.5448    0.2999   -3.3878 N.1       1 <0>        -0.3754
     20 N2          4.6697   -1.1833   -4.1589 N.pl3     1 <0>        -0.8602
     21 H1          1.0042    1.8801    0.0026 H         1 <0>         0.0782
     22 H2         -0.5455    1.8639   -0.8728 H         1 <0>         0.0766
     23 H3         -0.5286    1.8543    0.9071 H         1 <0>         0.0751
     24 H4         -0.0063   -0.1434   -2.1314 H         1 <0>         0.1523
     25 H5          0.0535   -3.8490   -0.0210 H         1 <0>         0.1553
     26 H6          0.0241   -0.1664    2.1333 H         1 <0>         0.1443
     27 H7          1.6153   -5.3016   -3.0394 H         1 <0>         0.1565
     28 H8          3.9645   -5.6426   -3.6809 H         1 <0>         0.1468
     29 H9          5.4006   -3.7198   -4.2056 H         1 <0>         0.1441
     30 H10         5.5959   -1.3231   -4.4111 H         1 <0>         0.4101
     31 H11         4.3098   -0.2837   -4.1137 H         1 <0>         0.4037
@<TRIPOS>BOND
     1    1    2 1
     2    1   21 1
     3    1   22 1
     4    1   23 1
     5    2    7 ar
     6    2    3 ar
     7    3    4 ar
     8    3   24 1
     9    4    5 ar
    10    4    9 1
    11    5    6 ar
    12    5   25 1
    13    6    7 ar
    14    6    8 1
    15    7   26 1
    16    9   10 2
    17    9   11 2
    18    9   12 1
    19   12   17 ar
    20   12   13 ar
    21   13   14 ar
    22   13   27 1
    23   14   15 ar
    24   14   28 1
    25   15   16 ar
    26   15   29 1
    27   16   17 ar
    28   16   20 1
    29   17   18 1
    30   18   19 3
    31   20   30 1
    32   20   31 1
@<TRIPOS>MOLECULE
CHEMBL105863
   47    50     0     0     0
SMALL
USER_CHARGES

@<TRIPOS>ATOM
      1 C1         -0.0720    1.2811    0.0179 C.ar      1 <0>        -0.1096
      2 C2          1.1003    2.0133   -0.0011 C.ar      1 <0>        -0.1217
      3 C3          2.3206    1.3640   -0.0185 C.ar      1 <0>        -0.0953
      4 C4          2.3685   -0.0175   -0.0165 C.ar      1 <0>        -0.0927
      5 C5          1.1962   -0.7497    0.0034 C.ar      1 <0>        -0.0963
      6 C6         -0.0241   -0.1005    0.0194 C.ar      1 <0>        -0.1226
      7 C7          3.6988   -0.7253   -0.0366 C.3       1 <0>         0.0739
      8 O1          4.1410   -0.9463    1.3042 O.3       1 <0>        -0.3391
      9 C8          5.3257   -1.7394    1.4022 C.3       1 <0>         0.2892
     10 C9          5.1301   -3.0053    0.6770 C.1       1 <0>        -0.2272
     11 C10         4.9742   -4.0150    0.0987 C.1       1 <0>        -0.0596
     12 C11         4.7786   -5.2809   -0.6265 C.3       1 <0>        -0.0628
     13 C12         4.6974   -6.5645    0.2022 C.3       1 <0>        -0.1596
     14 C13         5.9419   -6.2747   -0.6394 C.3       1 <0>        -0.1598
     15 C14         5.6167   -2.0306    2.8519 C.2       1 <0>        -0.2123
     16 C15         4.7905   -1.5542    3.8157 C.2       1 <0>         0.0499
     17 C16         5.1008   -1.8553    5.2145 C.ar      1 <0>        -0.1430
     18 C17         4.2856   -1.3919    6.2525 C.ar      1 <0>        -0.0441
     19 C18         4.6025   -1.6905    7.5472 C.ar      1 <0>        -0.1522
     20 C19         5.7269   -2.4496    7.8423 C.ar      1 <0>        -0.0540
     21 C20         6.5445   -2.9163    6.8359 C.ar      1 <0>        -0.1667
     22 C21         6.2413   -2.6256    5.5097 C.ar      1 <0>         0.1942
     23 N1          7.0411   -3.0803    4.4830 N.am      1 <0>        -0.6263
     24 C22         6.7450   -2.8032    3.2011 C.2       1 <0>         0.5425
     25 O2          7.4718   -3.2260    2.3187 O.2       1 <0>        -0.5070
     26 C23         6.5020   -0.9769    0.7891 C.3       1 <0>         0.4332
     27 F1          6.7604    0.1700    1.5475 F         1 <0>        -0.1717
     28 F2          7.6359   -1.7963    0.7817 F         1 <0>        -0.1431
     29 F3          6.1853   -0.6071   -0.5224 F         1 <0>        -0.1774
     30 H1         -1.0253    1.7883    0.0361 H         1 <0>         0.1245
     31 H2          1.0629    3.0927   -0.0026 H         1 <0>         0.1260
     32 H3          3.2365    1.9361   -0.0341 H         1 <0>         0.1249
     33 H4          1.2337   -1.8291    0.0046 H         1 <0>         0.1215
     34 H5         -0.9400   -0.6725    0.0346 H         1 <0>         0.1249
     35 H6          3.5933   -1.6827   -0.5468 H         1 <0>         0.0715
     36 H7          4.4292   -0.1113   -0.5635 H         1 <0>         0.0909
     37 H8          4.1594   -5.2193   -1.5214 H         1 <0>         0.1353
     38 H9          4.7889   -6.4716    1.2843 H         1 <0>         0.0991
     39 H10         4.0246   -7.3476   -0.1474 H         1 <0>         0.1091
     40 H11         6.0877   -6.8671   -1.5427 H         1 <0>         0.1084
     41 H12         6.8520   -5.9910   -0.1109 H         1 <0>         0.0990
     42 H13         3.9228   -0.9653    3.5573 H         1 <0>         0.1608
     43 H14         3.4096   -0.8002    6.0312 H         1 <0>         0.1390
     44 H15         3.9730   -1.3326    8.3485 H         1 <0>         0.1336
     45 H16         5.9634   -2.6765    8.8714 H         1 <0>         0.1352
     46 H17         7.4172   -3.5054    7.0759 H         1 <0>         0.1369
     47 H18         7.8267   -3.6110    4.6882 H         1 <0>         0.4204
@<TRIPOS>BOND
     1    1    6 ar
     2    1    2 ar
     3    1   30 1
     4    2    3 ar
     5    2   31 1
     6    3    4 ar
     7    3   32 1
     8    4    5 ar
     9    4    7 1
    10    5    6 ar
    11    5   33 1
    12    6   34 1
    13    7    8 1
    14    7   35 1
    15    7   36 1
    16    8    9 1
    17    9   10 1
    18    9   15 1
    19    9   26 1
    20   10   11 3
    21   11   12 1
    22   12   14 1
    23   12   13 1
    24   12   37 1
    25   13   14 1
    26   13   38 1
    27   13   39 1
    28   14   40 1
    29   14   41 1
    30   15   24 1
    31   15   16 2
    32   16   17 1
    33   16   42 1
    34   17   22 ar
    35   17   18 ar
    36   18   19 ar
    37   18   43 1
    38   19   20 ar
    39   19   44 1
    40   20   21 ar
    41   20   45 1
    42   21   22 ar
    43   21   46 1
    44   22   23 1
    45   23   24 am
    46   23   47 1
    47   24   25 2
    48   26   27 1
    49   26   28 1
    50   26   29 1
@<TRIPOS>MOLECULE
CHEMBL105863__1
   47    50     0     0     0
SMALL
USER_CHARGES

@<TRIPOS>ATOM
      1 C1          0.5173    2.1592    0.0350 C.ar      1 <0>        -0.1094
      2 C2          1.7996    2.6566    0.1737 C.ar      1 <0>        -0.1227
      3 C3          2.8809    1.7958    0.1519 C.ar      1 <0>        -0.0955
      4 C4          2.6800    0.4375   -0.0082 C.ar      1 <0>        -0.0930
      5 C5          1.3977   -0.0600   -0.1461 C.ar      1 <0>        -0.0951
      6 C6          0.3164    0.8010   -0.1257 C.ar      1 <0>        -0.1219
      7 C7          3.8590   -0.5008   -0.0330 C.3       1 <0>         0.0818
      8 O1          4.1445   -0.9422    1.2958 O.3       1 <0>        -0.3385
      9 C8          5.3257   -1.7394    1.4022 C.3       1 <0>         0.2891
     10 C9          6.4638   -1.0105    0.8189 C.1       1 <0>        -0.2274
     11 C10         7.3715   -0.4292    0.3536 C.1       1 <0>        -0.0600
     12 C11         8.5096    0.2997   -0.2297 C.3       1 <0>        -0.0648
     13 C12         9.1074   -0.2461   -1.5280 C.3       1 <0>        -0.1572
     14 C13         9.8747   -0.3911   -0.2123 C.3       1 <0>        -0.1592
     15 C14         5.6064   -2.0301    2.8540 C.2       1 <0>        -0.2133
     16 C15         4.7757   -1.5497    3.8120 C.2       1 <0>         0.0500
     17 C16         5.0759   -1.8504    5.2131 C.ar      1 <0>        -0.1432
     18 C17         4.2558   -1.3829    6.2453 C.ar      1 <0>        -0.0439
     19 C18         4.5633   -1.6813    7.5424 C.ar      1 <0>        -0.1522
     20 C19         5.6830   -2.4442    7.8455 C.ar      1 <0>        -0.0539
     21 C20         6.5053   -2.9149    6.8449 C.ar      1 <0>        -0.1669
     22 C21         6.2117   -2.6245    5.5164 C.ar      1 <0>         0.1941
     23 N1          7.0165   -3.0832    4.4954 N.am      1 <0>        -0.6266
     24 C22         6.7296   -2.8064    3.2112 C.2       1 <0>         0.5425
     25 O2          7.4605   -3.2327    2.3340 O.2       1 <0>        -0.5056
     26 C23         5.1225   -3.0552    0.6485 C.3       1 <0>         0.4310
     27 F1          4.9657   -2.7915   -0.7164 F         1 <0>        -0.1783
     28 F2          6.2372   -3.8788    0.8393 F         1 <0>        -0.1421
     29 F3          3.9789   -3.6987    1.1336 F         1 <0>        -0.1721
     30 H1         -0.3279    2.8313    0.0565 H         1 <0>         0.1245
     31 H2          1.9565    3.7178    0.2989 H         1 <0>         0.1252
     32 H3          3.8828    2.1844    0.2596 H         1 <0>         0.1227
     33 H4          1.2407   -1.1211   -0.2716 H         1 <0>         0.1248
     34 H5         -0.6855    0.4124   -0.2338 H         1 <0>         0.1260
     35 H6          3.6250   -1.3617   -0.6594 H         1 <0>         0.0807
     36 H7          4.7278    0.0179   -0.4382 H         1 <0>         0.0736
     37 H8          8.4914    1.3817   -0.0995 H         1 <0>         0.1339
     38 H9          8.6579   -1.1449   -1.9502 H         1 <0>         0.1026
     39 H10         9.4825    0.4769   -2.2523 H         1 <0>         0.1085
     40 H11        10.7546    0.2365   -0.0710 H         1 <0>         0.1082
     41 H12         9.9300   -1.3853    0.2311 H         1 <0>         0.0976
     42 H13         3.9118   -0.9580    3.5474 H         1 <0>         0.1611
     43 H14         3.3834   -0.7884    6.0178 H         1 <0>         0.1391
     44 H15         3.9299   -1.3203    8.3392 H         1 <0>         0.1336
     45 H16         5.9121   -2.6708    8.8763 H         1 <0>         0.1352
     46 H17         7.3744   -3.5069    7.0910 H         1 <0>         0.1368
     47 H18         7.7988   -3.6165    4.7062 H         1 <0>         0.4202
@<TRIPOS>BOND
     1    1    6 ar
     2    1    2 ar
     3    1   30 1
     4    2    3 ar
     5    2   31 1
     6    3    4 ar
     7    3   32 1
     8    4    5 ar
     9    4    7 1
    10    5    6 ar
    11    5   33 1
    12    6   34 1
    13    7    8 1
    14    7   35 1
    15    7   36 1
    16    8    9 1
    17    9   10 1
    18    9   15 1
    19    9   26 1
    20   10   11 3
    21   11   12 1
    22   12   14 1
    23   12   13 1
    24   12   37 1
    25   13   14 1
    26   13   38 1
    27   13   39 1
    28   14   40 1
    29   14   41 1
    30   15   24 1
    31   15   16 2
    32   16   17 1
    33   16   42 1
    34   17   22 ar
    35   17   18 ar
    36   18   19 ar
    37   18   43 1
    38   19   20 ar
    39   19   44 1
    40   20   21 ar
    41   20   45 1
    42   21   22 ar
    43   21   46 1
    44   22   23 1
    45   23   24 am
    46   23   47 1
    47   24   25 2
    48   26   27 1
    49   26   28 1
    50   26   29 1
@<TRIPOS>MOLECULE
CHEMBL42906
   40    43     0     0     0
SMALL
USER_CHARGES

@<TRIPOS>ATOM
      1 C1         -0.0316    1.4570    0.0251 C.3       1 <0>        -0.1693
      2 C2          0.0049   -0.0725    0.0372 C.3       1 <0>         0.1376
      3 N1          0.7240   -0.5344    1.2271 N.pl3     1 <0>        -0.5803
      4 C3          2.0967   -0.7251    1.1671 C.ar      1 <0>         0.3925
      5 C4          2.9475    0.0268    1.9894 C.ar      1 <0>        -0.0756
      6 C5          4.3223   -0.2022    1.9401 C.ar      1 <0>        -0.0201
      7 C6          4.7963   -1.1617    1.0576 C.ar      1 <0>        -0.1786
      8 C7          3.9008   -1.8518    0.2638 C.ar      1 <0>         0.1304
      9 N2          2.6029   -1.6232    0.3353 N.ar      1 <0>        -0.4922
     10 C8          2.3976    1.0632    2.8870 C.2       1 <0>         0.2561
     11 N3          2.9836    2.2074    3.1772 N.2       1 <0>        -0.4625
     12 C9          2.2033    2.9071    4.0085 C.2       1 <0>        -0.0116
     13 C10         1.0917    2.1864    4.2565 C.2       1 <0>        -0.0181
     14 N4          1.2098    1.0127    3.5546 N.pl3     1 <0>        -0.3845
     15 C11         0.2696   -0.0312    3.5523 C.ar      1 <0>         0.0236
     16 C12         0.0224   -0.7710    2.4056 C.ar      1 <0>         0.4302
     17 N5         -0.8955   -1.7307    2.4244 N.ar      1 <0>        -0.5358
     18 C13        -1.5806   -2.0209    3.5177 C.ar      1 <0>         0.3499
     19 C14        -1.3646   -1.3268    4.6983 C.ar      1 <0>        -0.1760
     20 C15        -0.4278   -0.3215    4.7188 C.ar      1 <0>        -0.0380
     21 O1         -2.5080   -3.0114    3.4835 O.3       1 <0>        -0.2995
     22 C16        -2.6863   -3.6904    2.2389 C.3       1 <0>         0.0378
     23 C17        -0.0619    2.5922    5.1372 C.3       1 <0>        -0.0914
     24 H1          0.9870    1.8447    0.0074 H         1 <0>         0.0570
     25 H2         -0.5667    1.8007   -0.8602 H         1 <0>         0.0718
     26 H3         -0.5412    1.8154    0.9195 H         1 <0>         0.0513
     27 H4         -1.0137   -0.4601    0.0550 H         1 <0>         0.0797
     28 H5          0.5145   -0.4308   -0.8572 H         1 <0>         0.0850
     29 H6          4.9998    0.3530    2.5719 H         1 <0>         0.1495
     30 H7          5.8546   -1.3668    0.9915 H         1 <0>         0.1480
     31 H8          4.2702   -2.5932   -0.4292 H         1 <0>         0.1659
     32 H9          2.4262    3.8837    4.4124 H         1 <0>         0.1792
     33 H10        -1.9228   -1.5748    5.5890 H         1 <0>         0.1594
     34 H11        -0.2426    0.2355    5.6254 H         1 <0>         0.1630
     35 H12        -1.7474   -4.1580    1.9423 H         1 <0>         0.0622
     36 H13        -3.4543   -4.4559    2.3494 H         1 <0>         0.1017
     37 H14        -2.9932   -2.9754    1.4756 H         1 <0>         0.0617
     38 H15        -0.7509    3.2168    4.5687 H         1 <0>         0.0785
     39 H16        -0.5833    1.7010    5.4865 H         1 <0>         0.0728
     40 H17         0.3141    3.1522    5.9934 H         1 <0>         0.0891
@<TRIPOS>BOND
     1    1    2 1
     2    1   24 1
     3    1   25 1
     4    1   26 1
     5    2    3 1
     6    2   27 1
     7    2   28 1
     8    3   16 1
     9    3    4 1
    10    4    9 ar
    11    4    5 ar
    12    5    6 ar
    13    5   10 1
    14    6    7 ar
    15    6   29 1
    16    7    8 ar
    17    7   30 1
    18    8    9 ar
    19    8   31 1
    20   10   14 1
    21   10   11 2
    22   11   12 1
    23   12   13 2
    24   12   32 1
    25   13   14 1
    26   13   23 1
    27   14   15 1
    28   15   20 ar
    29   15   16 ar
    30   16   17 ar
    31   17   18 ar
    32   18   19 ar
    33   18   21 1
    34   19   20 ar
    35   19   33 1
    36   20   34 1
    37   21   22 1
    38   22   35 1
    39   22   36 1
    40   22   37 1
    41   23   38 1
    42   23   39 1
    43   23   40 1
@<TRIPOS>MOLECULE
CHEMBL336502
   36    38     0     0     0
SMALL
USER_CHARGES

@<TRIPOS>ATOM
      1 C1          0.4012    1.1837    1.1299 C.2       1 <0>         0.1035
      2 C2          1.6753    1.6236    0.9221 C.2       1 <0>        -0.1913
      3 C3          2.4429    0.4592    0.4537 C.ar      1 <0>        -0.2242
      4 C4          3.7715    0.2345    0.0725 C.ar      1 <0>         0.4975
      5 N1          4.1207   -0.9914   -0.3081 N.ar      1 <0>        -0.5954
      6 C5          3.2384   -1.9738   -0.3268 C.ar      1 <0>         0.3670
      7 N2          1.9815   -1.8061    0.0231 N.ar      1 <0>        -0.5659
      8 C6          1.5382   -0.6137    0.4188 C.ar      1 <0>         0.3486
      9 N3          0.3207   -0.1385    0.8324 N.pl3     1 <0>        -0.4579
     10 C7         -0.8976   -0.9452    0.9390 C.3       1 <0>         0.2821
     11 C8         -1.6115   -0.9988   -0.4288 C.3       1 <0>         0.0244
     12 C9         -3.1076   -0.9003   -0.0237 C.3       1 <0>         0.0577
     13 C10        -3.0172    0.0313    1.2111 C.3       1 <0>         0.0864
     14 O1         -1.7992   -0.3424    1.8746 O.3       1 <0>        -0.3380
     15 C11        -4.2159   -0.1938    2.1350 C.3       1 <0>         0.0856
     16 O2         -4.1765    0.7523    3.2053 O.3       1 <0>        -0.5703
     17 O3         -3.6296   -2.1814    0.3347 O.3       1 <0>        -0.5386
     18 F1         -1.3506   -2.2095   -1.0795 F         1 <0>        -0.1740
     19 N4          4.6980    1.2623    0.0907 N.pl3     1 <0>        -0.8174
     20 C12         2.1807    2.9888    1.1254 C.2       1 <0>         0.5965
     21 O4          3.3267    3.1646    1.4941 O.2       1 <0>        -0.5397
     22 N5          1.3746    4.0458    0.9034 N.am      1 <0>        -0.8462
     23 H1         -0.4178    1.7933    1.4821 H         1 <0>         0.1862
     24 H2          3.5619   -2.9546   -0.6425 H         1 <0>         0.2034
     25 H3         -0.6455   -1.9540    1.2658 H         1 <0>         0.1380
     26 H4         -1.3216   -0.1523   -1.0512 H         1 <0>         0.1167
     27 H5         -3.7002   -0.4447   -0.8170 H         1 <0>         0.1059
     28 H6         -2.9719    1.0738    0.8960 H         1 <0>         0.1046
     29 H7         -5.1392   -0.0652    1.5701 H         1 <0>         0.0681
     30 H8         -4.1764   -1.2043    2.5417 H         1 <0>         0.0696
     31 H9         -4.9084    0.6681    3.8317 H         1 <0>         0.3873
     32 H10        -3.6046   -2.8307   -0.3814 H         1 <0>         0.3947
     33 H11         4.3997    2.1831    0.1550 H         1 <0>         0.4185
     34 H12         5.6457    1.0620    0.0392 H         1 <0>         0.4069
     35 H13         0.4609    3.9057    0.6094 H         1 <0>         0.4019
     36 H14         1.7081    4.9467    1.0376 H         1 <0>         0.4080
@<TRIPOS>BOND
     1    1    9 1
     2    1    2 2
     3    1   23 1
     4    2    3 1
     5    2   20 1
     6    3    8 ar
     7    3    4 ar
     8    4    5 ar
     9    4   19 1
    10    5    6 ar
    11    6    7 ar
    12    6   24 1
    13    7    8 ar
    14    8    9 1
    15    9   10 1
    16   10   14 1
    17   10   11 1
    18   10   25 1
    19   11   12 1
    20   11   18 1
    21   11   26 1
    22   12   13 1
    23   12   17 1
    24   12   27 1
    25   13   14 1
    26   13   15 1
    27   13   28 1
    28   15   16 1
    29   15   29 1
    30   15   30 1
    31   16   31 1
    32   17   32 1
    33   19   33 1
    34   19   34 1
    35   20   21 2
    36   20   22 am
    37   22   35 1
    38   22   36 1
@<TRIPOS>MOLECULE
CHEMBL336502__1
   36    38     0     0     0
SMALL
USER_CHARGES

@<TRIPOS>ATOM
      1 C1          0.4012    1.1837    1.1299 C.2       1 <0>         0.1065
      2 C2          1.6753    1.6236    0.9221 C.2       1 <0>        -0.1912
      3 C3          2.4429    0.4592    0.4537 C.ar      1 <0>        -0.2235
      4 C4          3.7715    0.2345    0.0725 C.ar      1 <0>         0.4979
      5 N1          4.1207   -0.9914   -0.3081 N.ar      1 <0>        -0.5947
      6 C5          3.2384   -1.9738   -0.3268 C.ar      1 <0>         0.3679
      7 N2          1.9815   -1.8061    0.0231 N.ar      1 <0>        -0.5646
      8 C6          1.5382   -0.6137    0.4188 C.ar      1 <0>         0.3518
      9 N3          0.3207   -0.1385    0.8324 N.pl3     1 <0>        -0.4478
     10 C7         -0.8976   -0.9452    0.9390 C.3       1 <0>         0.2824
     11 C8         -1.6825   -0.9277   -0.3974 C.3       1 <0>         0.0213
     12 C9         -3.1259   -1.2353    0.0701 C.3       1 <0>         0.0587
     13 C10        -3.1254   -0.8649    1.5660 C.3       1 <0>         0.0881
     14 O1         -1.8194   -0.3523    1.8788 O.3       1 <0>        -0.3457
     15 C11        -4.1834    0.2066    1.8370 C.3       1 <0>         0.0814
     16 O2         -4.2563    0.4595    3.2415 O.3       1 <0>        -0.5620
     17 O3         -3.4222   -2.6226   -0.1015 O.3       1 <0>        -0.5404
     18 F1         -1.2157   -1.9221   -1.2637 F         1 <0>        -0.1741
     19 N4          4.6980    1.2623    0.0907 N.pl3     1 <0>        -0.8171
     20 C12         2.1807    2.9888    1.1254 C.2       1 <0>         0.5969
     21 O4          3.3267    3.1646    1.4941 O.2       1 <0>        -0.5391
     22 N5          1.3746    4.0458    0.9034 N.am      1 <0>        -0.8462
     23 H1         -0.4178    1.7933    1.4821 H         1 <0>         0.1886
     24 H2          3.5619   -2.9546   -0.6425 H         1 <0>         0.2040
     25 H3         -0.6555   -1.9670    1.2313 H         1 <0>         0.1292
     26 H4         -1.6270    0.0538   -0.8682 H         1 <0>         0.1151
     27 H5         -3.8425   -0.6209   -0.4748 H         1 <0>         0.0990
     28 H6         -3.3296   -1.7508    2.1672 H         1 <0>         0.1084
     29 H7         -3.9124    1.1248    1.3160 H         1 <0>         0.0588
     30 H8         -5.1526   -0.1413    1.4796 H         1 <0>         0.0718
     31 H9         -4.9084    1.1300    3.4871 H         1 <0>         0.3875
     32 H10        -3.3790   -2.9234   -1.0195 H         1 <0>         0.3953
     33 H11         4.3997    2.1831    0.1550 H         1 <0>         0.4186
     34 H12         5.6457    1.0620    0.0392 H         1 <0>         0.4072
     35 H13         0.4609    3.9057    0.6094 H         1 <0>         0.4020
     36 H14         1.7081    4.9467    1.0376 H         1 <0>         0.4081
@<TRIPOS>BOND
     1    1    9 1
     2    1    2 2
     3    1   23 1
     4    2    3 1
     5    2   20 1
     6    3    8 ar
     7    3    4 ar
     8    4    5 ar
     9    4   19 1
    10    5    6 ar
    11    6    7 ar
    12    6   24 1
    13    7    8 ar
    14    8    9 1
    15    9   10 1
    16   10   14 1
    17   10   11 1
    18   10   25 1
    19   11   12 1
    20   11   18 1
    21   11   26 1
    22   12   13 1
    23   12   17 1
    24   12   27 1
    25   13   14 1
    26   13   15 1
    27   13   28 1
    28   15   16 1
    29   15   29 1
    30   15   30 1
    31   16   31 1
    32   17   32 1
    33   19   33 1
    34   19   34 1
    35   20   21 2
    36   20   22 am
    37   22   35 1
    38   22   36 1
@<TRIPOS>MOLECULE
CHEMBL336502__2
   36    38     0     0     0
SMALL
USER_CHARGES

@<TRIPOS>ATOM
      1 C1          0.4012    1.1837    1.1299 C.2       1 <0>         0.1047
      2 C2          1.6753    1.6236    0.9221 C.2       1 <0>        -0.1906
      3 C3          2.4429    0.4592    0.4537 C.ar      1 <0>        -0.2237
      4 C4          3.7715    0.2345    0.0725 C.ar      1 <0>         0.4978
      5 N1          4.1207   -0.9914   -0.3081 N.ar      1 <0>        -0.5952
      6 C5          3.2384   -1.9738   -0.3268 C.ar      1 <0>         0.3673
      7 N2          1.9815   -1.8061    0.0231 N.ar      1 <0>        -0.5665
      8 C6          1.5382   -0.6137    0.4188 C.ar      1 <0>         0.3485
      9 N3          0.3207   -0.1385    0.8324 N.pl3     1 <0>        -0.4574
     10 C7         -0.8976   -0.9452    0.9390 C.3       1 <0>         0.2791
     11 C8         -1.6115   -0.9988   -0.4288 C.3       1 <0>         0.0215
     12 C9         -3.1076   -0.9003   -0.0237 C.3       1 <0>         0.0598
     13 C10        -3.0172    0.0313    1.2111 C.3       1 <0>         0.0858
     14 O1         -1.7992   -0.3424    1.8746 O.3       1 <0>        -0.3366
     15 C11        -4.2159   -0.1938    2.1350 C.3       1 <0>         0.0823
     16 O2         -4.1765    0.7523    3.2053 O.3       1 <0>        -0.5654
     17 O3         -3.8845   -0.3030   -1.0638 O.3       1 <0>        -0.5399
     18 F1         -1.3506   -2.2095   -1.0795 F         1 <0>        -0.1755
     19 N4          4.6980    1.2623    0.0907 N.pl3     1 <0>        -0.8171
     20 C12         2.1807    2.9888    1.1254 C.2       1 <0>         0.5965
     21 O4          3.3267    3.1646    1.4941 O.2       1 <0>        -0.5399
     22 N5          1.3746    4.0458    0.9034 N.am      1 <0>        -0.8459
     23 H1         -0.4178    1.7933    1.4821 H         1 <0>         0.1865
     24 H2          3.5619   -2.9546   -0.6425 H         1 <0>         0.2036
     25 H3         -0.6455   -1.9540    1.2658 H         1 <0>         0.1402
     26 H4         -1.3216   -0.1523   -1.0512 H         1 <0>         0.1191
     27 H5         -3.5057   -1.8775    0.2497 H         1 <0>         0.1027
     28 H6         -2.9719    1.0738    0.8960 H         1 <0>         0.1027
     29 H7         -5.1392   -0.0652    1.5701 H         1 <0>         0.0745
     30 H8         -4.1764   -1.2043    2.5417 H         1 <0>         0.0606
     31 H9         -4.9084    0.6681    3.8317 H         1 <0>         0.3882
     32 H10        -3.8802   -0.8004   -1.8930 H         1 <0>         0.3962
     33 H11         4.3997    2.1831    0.1550 H         1 <0>         0.4187
     34 H12         5.6457    1.0620    0.0392 H         1 <0>         0.4070
     35 H13         0.4609    3.9057    0.6094 H         1 <0>         0.4023
     36 H14         1.7081    4.9467    1.0376 H         1 <0>         0.4082
@<TRIPOS>BOND
     1    1    9 1
     2    1    2 2
     3    1   23 1
     4    2    3 1
     5    2   20 1
     6    3    8 ar
     7    3    4 ar
     8    4    5 ar
     9    4   19 1
    10    5    6 ar
    11    6    7 ar
    12    6   24 1
    13    7    8 ar
    14    8    9 1
    15    9   10 1
    16   10   14 1
    17   10   11 1
    18   10   25 1
    19   11   12 1
    20   11   18 1
    21   11   26 1
    22   12   13 1
    23   12   17 1
    24   12   27 1
    25   13   14 1
    26   13   15 1
    27   13   28 1
    28   15   16 1
    29   15   29 1
    30   15   30 1
    31   16   31 1
    32   17   32 1
    33   19   33 1
    34   19   34 1
    35   20   21 2
    36   20   22 am
    37   22   35 1
    38   22   36 1
@<TRIPOS>MOLECULE
CHEMBL336502__3
   36    38     0     0     0
SMALL
USER_CHARGES

@<TRIPOS>ATOM
      1 C1          0.4012    1.1837    1.1299 C.2       1 <0>         0.1104
      2 C2          1.6753    1.6236    0.9221 C.2       1 <0>        -0.1925
      3 C3          2.4429    0.4592    0.4537 C.ar      1 <0>        -0.2224
      4 C4          3.7715    0.2345    0.0725 C.ar      1 <0>         0.4980
      5 N1          4.1207   -0.9914   -0.3081 N.ar      1 <0>        -0.5946
      6 C5          3.2384   -1.9738   -0.3268 C.ar      1 <0>         0.3678
      7 N2          1.9815   -1.8061    0.0231 N.ar      1 <0>        -0.5663
      8 C6          1.5382   -0.6137    0.4188 C.ar      1 <0>         0.3492
      9 N3          0.3207   -0.1385    0.8324 N.pl3     1 <0>        -0.4477
     10 C7         -0.8976   -0.9452    0.9390 C.3       1 <0>         0.2803
     11 C8         -1.6584   -0.9505   -0.4055 C.3       1 <0>         0.0204
     12 C9         -3.1474   -0.9176    0.0056 C.3       1 <0>         0.0580
     13 C10        -3.1101   -0.8963    1.5498 C.3       1 <0>         0.0903
     14 O1         -1.8156   -0.3475    1.8801 O.3       1 <0>        -0.3441
     15 C11        -4.2236   -0.0010    2.0972 C.3       1 <0>         0.0928
     16 O2         -4.2456   -0.0864    3.5235 O.3       1 <0>        -0.5706
     17 O3         -3.7795    0.2617   -0.4963 O.3       1 <0>        -0.5430
     18 F1         -1.3741   -2.1162   -1.1249 F         1 <0>        -0.1789
     19 N4          4.6980    1.2623    0.0907 N.pl3     1 <0>        -0.8168
     20 C12         2.1807    2.9888    1.1254 C.2       1 <0>         0.5970
     21 O4          3.3267    3.1646    1.4941 O.2       1 <0>        -0.5398
     22 N5          1.3746    4.0458    0.9034 N.am      1 <0>        -0.8459
     23 H1         -0.4178    1.7933    1.4821 H         1 <0>         0.1889
     24 H2          3.5619   -2.9546   -0.6425 H         1 <0>         0.2041
     25 H3         -0.6525   -1.9631    1.2422 H         1 <0>         0.1268
     26 H4         -1.4043   -0.0673   -0.9916 H         1 <0>         0.1152
     27 H5         -3.6621   -1.8095   -0.3517 H         1 <0>         0.1035
     28 H6         -3.2058   -1.9073    1.9457 H         1 <0>         0.1070
     29 H7         -4.0403    1.0309    1.7978 H         1 <0>         0.0677
     30 H8         -5.1833   -0.3300    1.6987 H         1 <0>         0.0709
     31 H9         -4.9287    0.4570    3.9395 H         1 <0>         0.3869
     32 H10        -3.7770    0.3290   -1.4609 H         1 <0>         0.3909
     33 H11         4.3997    2.1831    0.1550 H         1 <0>         0.4187
     34 H12         5.6457    1.0620    0.0392 H         1 <0>         0.4072
     35 H13         0.4609    3.9057    0.6094 H         1 <0>         0.4025
     36 H14         1.7081    4.9467    1.0376 H         1 <0>         0.4081
@<TRIPOS>BOND
     1    1    9 1
     2    1    2 2
     3    1   23 1
     4    2    3 1
     5    2   20 1
     6    3    8 ar
     7    3    4 ar
     8    4    5 ar
     9    4   19 1
    10    5    6 ar
    11    6    7 ar
    12    6   24 1
    13    7    8 ar
    14    8    9 1
    15    9   10 1
    16   10   14 1
    17   10   11 1
    18   10   25 1
    19   11   12 1
    20   11   18 1
    21   11   26 1
    22   12   13 1
    23   12   17 1
    24   12   27 1
    25   13   14 1
    26   13   15 1
    27   13   28 1
    28   15   16 1
    29   15   29 1
    30   15   30 1
    31   16   31 1
    32   17   32 1
    33   19   33 1
    34   19   34 1
    35   20   21 2
    36   20   22 am
    37   22   35 1
    38   22   36 1
@<TRIPOS>MOLECULE
CHEMBL336502__4
   36    38     0     0     0
SMALL
USER_CHARGES

@<TRIPOS>ATOM
      1 C1          0.4012    1.1837    1.1299 C.2       1 <0>         0.1159
      2 C2          1.6753    1.6236    0.9221 C.2       1 <0>        -0.1954
      3 C3          2.4429    0.4592    0.4537 C.ar      1 <0>        -0.2211
      4 C4          3.7715    0.2345    0.0725 C.ar      1 <0>         0.4978
      5 N1          4.1207   -0.9914   -0.3081 N.ar      1 <0>        -0.5963
      6 C5          3.2384   -1.9738   -0.3268 C.ar      1 <0>         0.3656
      7 N2          1.9815   -1.8061    0.0231 N.ar      1 <0>        -0.5726
      8 C6          1.5382   -0.6137    0.4188 C.ar      1 <0>         0.3486
      9 N3          0.3207   -0.1385    0.8324 N.pl3     1 <0>        -0.4521
     10 C7         -0.8976   -0.9452    0.9390 C.3       1 <0>         0.2822
     11 C8         -1.6115   -0.9988   -0.4288 C.3       1 <0>         0.0206
     12 C9         -3.1076   -0.9003   -0.0237 C.3       1 <0>         0.0575
     13 C10        -3.0172    0.0313    1.2111 C.3       1 <0>         0.0866
     14 O1         -1.7992   -0.3424    1.8746 O.3       1 <0>        -0.3422
     15 C11        -4.2159   -0.1938    2.1350 C.3       1 <0>         0.0863
     16 O2         -4.1765    0.7523    3.2053 O.3       1 <0>        -0.5700
     17 O3         -3.6296   -2.1814    0.3347 O.3       1 <0>        -0.5372
     18 F1         -1.2394    0.0877   -1.2276 F         1 <0>        -0.1802
     19 N4          4.6980    1.2623    0.0907 N.pl3     1 <0>        -0.8173
     20 C12         2.1807    2.9888    1.1254 C.2       1 <0>         0.5974
     21 O4          3.3267    3.1646    1.4941 O.2       1 <0>        -0.5417
     22 N5          1.3746    4.0458    0.9034 N.am      1 <0>        -0.8461
     23 H1         -0.4178    1.7933    1.4821 H         1 <0>         0.1836
     24 H2          3.5619   -2.9546   -0.6425 H         1 <0>         0.2027
     25 H3         -0.6455   -1.9540    1.2658 H         1 <0>         0.1412
     26 H4         -1.4082   -1.9421   -0.9358 H         1 <0>         0.1258
     27 H5         -3.7002   -0.4447   -0.8170 H         1 <0>         0.1062
     28 H6         -2.9719    1.0738    0.8960 H         1 <0>         0.1031
     29 H7         -5.1392   -0.0652    1.5701 H         1 <0>         0.0672
     30 H8         -4.1764   -1.2043    2.5417 H         1 <0>         0.0691
     31 H9         -4.9084    0.6681    3.8317 H         1 <0>         0.3867
     32 H10        -3.6046   -2.8307   -0.3814 H         1 <0>         0.3929
     33 H11         4.3997    2.1831    0.1550 H         1 <0>         0.4188
     34 H12         5.6457    1.0620    0.0392 H         1 <0>         0.4066
     35 H13         0.4609    3.9057    0.6094 H         1 <0>         0.4024
     36 H14         1.7081    4.9467    1.0376 H         1 <0>         0.4075
@<TRIPOS>BOND
     1    1    9 1
     2    1    2 2
     3    1   23 1
     4    2    3 1
     5    2   20 1
     6    3    8 ar
     7    3    4 ar
     8    4    5 ar
     9    4   19 1
    10    5    6 ar
    11    6    7 ar
    12    6   24 1
    13    7    8 ar
    14    8    9 1
    15    9   10 1
    16   10   14 1
    17   10   11 1
    18   10   25 1
    19   11   12 1
    20   11   18 1
    21   11   26 1
    22   12   13 1
    23   12   17 1
    24   12   27 1
    25   13   14 1
    26   13   15 1
    27   13   28 1
    28   15   16 1
    29   15   29 1
    30   15   30 1
    31   16   31 1
    32   17   32 1
    33   19   33 1
    34   19   34 1
    35   20   21 2
    36   20   22 am
    37   22   35 1
    38   22   36 1
@<TRIPOS>MOLECULE
CHEMBL336502__5
   36    38     0     0     0
SMALL
USER_CHARGES

@<TRIPOS>ATOM
      1 C1          0.4012    1.1837    1.1299 C.2       1 <0>         0.1212
      2 C2          1.6753    1.6236    0.9221 C.2       1 <0>        -0.1963
      3 C3          2.4429    0.4592    0.4537 C.ar      1 <0>        -0.2199
      4 C4          3.7715    0.2345    0.0725 C.ar      1 <0>         0.4984
      5 N1          4.1207   -0.9914   -0.3081 N.ar      1 <0>        -0.5952
      6 C5          3.2384   -1.9738   -0.3268 C.ar      1 <0>         0.3667
      7 N2          1.9815   -1.8061    0.0231 N.ar      1 <0>        -0.5721
      8 C6          1.5382   -0.6137    0.4188 C.ar      1 <0>         0.3475
      9 N3          0.3207   -0.1385    0.8324 N.pl3     1 <0>        -0.4440
     10 C7         -0.8976   -0.9452    0.9390 C.3       1 <0>         0.2825
     11 C8         -1.6825   -0.9277   -0.3974 C.3       1 <0>         0.0186
     12 C9         -3.1259   -1.2353    0.0701 C.3       1 <0>         0.0585
     13 C10        -3.1254   -0.8649    1.5660 C.3       1 <0>         0.0891
     14 O1         -1.8194   -0.3523    1.8788 O.3       1 <0>        -0.3490
     15 C11        -4.1834    0.2066    1.8370 C.3       1 <0>         0.0813
     16 O2         -4.2563    0.4595    3.2415 O.3       1 <0>        -0.5623
     17 O3         -3.4222   -2.6226   -0.1015 O.3       1 <0>        -0.5409
     18 F1         -1.6113    0.3321   -1.0017 F         1 <0>        -0.1826
     19 N4          4.6980    1.2623    0.0907 N.pl3     1 <0>        -0.8166
     20 C12         2.1807    2.9888    1.1254 C.2       1 <0>         0.5977
     21 O4          3.3267    3.1646    1.4941 O.2       1 <0>        -0.5412
     22 N5          1.3746    4.0458    0.9034 N.am      1 <0>        -0.8459
     23 H1         -0.4178    1.7933    1.4821 H         1 <0>         0.1867
     24 H2          3.5619   -2.9546   -0.6425 H         1 <0>         0.2038
     25 H3         -0.6555   -1.9670    1.2313 H         1 <0>         0.1342
     26 H4         -1.3188   -1.7024   -1.0723 H         1 <0>         0.1237
     27 H5         -3.8425   -0.6209   -0.4748 H         1 <0>         0.1002
     28 H6         -3.3296   -1.7508    2.1672 H         1 <0>         0.1078
     29 H7         -3.9124    1.1248    1.3160 H         1 <0>         0.0596
     30 H8         -5.1526   -0.1413    1.4796 H         1 <0>         0.0707
     31 H9         -4.9084    1.1300    3.4871 H         1 <0>         0.3872
     32 H10        -3.3790   -2.9234   -1.0195 H         1 <0>         0.3942
     33 H11         4.3997    2.1831    0.1550 H         1 <0>         0.4190
     34 H12         5.6457    1.0620    0.0392 H         1 <0>         0.4071
     35 H13         0.4609    3.9057    0.6094 H         1 <0>         0.4029
     36 H14         1.7081    4.9467    1.0376 H         1 <0>         0.4077
@<TRIPOS>BOND
     1    1    9 1
     2    1    2 2
     3    1   23 1
     4    2    3 1
     5    2   20 1
     6    3    8 ar
     7    3    4 ar
     8    4    5 ar
     9    4   19 1
    10    5    6 ar
    11    6    7 ar
    12    6   24 1
    13    7    8 ar
    14    8    9 1
    15    9   10 1
    16   10   14 1
    17   10   11 1
    18   10   25 1
    19   11   12 1
    20   11   18 1
    21   11   26 1
    22   12   13 1
    23   12   17 1
    24   12   27 1
    25   13   14 1
    26   13   15 1
    27   13   28 1
    28   15   16 1
    29   15   29 1
    30   15   30 1
    31   16   31 1
    32   17   32 1
    33   19   33 1
    34   19   34 1
    35   20   21 2
    36   20   22 am
    37   22   35 1
    38   22   36 1
@<TRIPOS>MOLECULE
CHEMBL336502__6
   36    38     0     0     0
SMALL
USER_CHARGES

@<TRIPOS>ATOM
      1 C1          0.4012    1.1837    1.1299 C.2       1 <0>         0.1216
      2 C2          1.6753    1.6236    0.9221 C.2       1 <0>        -0.1966
      3 C3          2.4429    0.4592    0.4537 C.ar      1 <0>        -0.2195
      4 C4          3.7715    0.2345    0.0725 C.ar      1 <0>         0.4984
      5 N1          4.1207   -0.9914   -0.3081 N.ar      1 <0>        -0.5956
      6 C5          3.2384   -1.9738   -0.3268 C.ar      1 <0>         0.3661
      7 N2          1.9815   -1.8061    0.0231 N.ar      1 <0>        -0.5734
      8 C6          1.5382   -0.6137    0.4188 C.ar      1 <0>         0.3467
      9 N3          0.3207   -0.1385    0.8324 N.pl3     1 <0>        -0.4459
     10 C7         -0.8976   -0.9452    0.9390 C.3       1 <0>         0.2800
     11 C8         -1.6552   -0.9564   -0.4126 C.3       1 <0>         0.0160
     12 C9         -3.1034   -1.2528    0.0637 C.3       1 <0>         0.0603
     13 C10        -3.1576   -0.5216    1.4223 C.3       1 <0>         0.0895
     14 O1         -1.8097   -0.3496    1.8753 O.3       1 <0>        -0.3474
     15 C11        -3.9416   -1.3614    2.4327 C.3       1 <0>         0.0705
     16 O2         -4.0870   -0.6281    3.6506 O.3       1 <0>        -0.5626
     17 O3         -4.0599   -0.7063   -0.8465 O.3       1 <0>        -0.5355
     18 F1         -1.5772    0.2893   -1.0446 F         1 <0>        -0.1756
     19 N4          4.6980    1.2623    0.0907 N.pl3     1 <0>        -0.8165
     20 C12         2.1807    2.9888    1.1254 C.2       1 <0>         0.5976
     21 O4          3.3267    3.1646    1.4941 O.2       1 <0>        -0.5421
     22 N5          1.3746    4.0458    0.9034 N.am      1 <0>        -0.8457
     23 H1         -0.4178    1.7933    1.4821 H         1 <0>         0.1867
     24 H2          3.5619   -2.9546   -0.6425 H         1 <0>         0.2033
     25 H3         -0.6517   -1.9621    1.2450 H         1 <0>         0.1337
     26 H4         -1.2858   -1.7488   -1.0635 H         1 <0>         0.1252
     27 H5         -3.2575   -2.3240    0.1932 H         1 <0>         0.1046
     28 H6         -3.6336    0.4513    1.2999 H         1 <0>         0.1140
     29 H7         -4.9268   -1.5915    2.0272 H         1 <0>         0.0691
     30 H8         -3.4038   -2.2890    2.6292 H         1 <0>         0.0561
     31 H9         -4.5754   -1.1008    4.3384 H         1 <0>         0.3861
     32 H10        -4.0060   -1.0718   -1.7401 H         1 <0>         0.3937
     33 H11         4.3997    2.1831    0.1550 H         1 <0>         0.4192
     34 H12         5.6457    1.0620    0.0392 H         1 <0>         0.4070
     35 H13         0.4609    3.9057    0.6094 H         1 <0>         0.4034
     36 H14         1.7081    4.9467    1.0376 H         1 <0>         0.4077
@<TRIPOS>BOND
     1    1    9 1
     2    1    2 2
     3    1   23 1
     4    2    3 1
     5    2   20 1
     6    3    8 ar
     7    3    4 ar
     8    4    5 ar
     9    4   19 1
    10    5    6 ar
    11    6    7 ar
    12    6   24 1
    13    7    8 ar
    14    8    9 1
    15    9   10 1
    16   10   14 1
    17   10   11 1
    18   10   25 1
    19   11   12 1
    20   11   18 1
    21   11   26 1
    22   12   13 1
    23   12   17 1
    24   12   27 1
    25   13   14 1
    26   13   15 1
    27   13   28 1
    28   15   16 1
    29   15   29 1
    30   15   30 1
    31   16   31 1
    32   17   32 1
    33   19   33 1
    34   19   34 1
    35   20   21 2
    36   20   22 am
    37   22   35 1
    38   22   36 1
@<TRIPOS>MOLECULE
CHEMBL336502__7
   36    38     0     0     0
SMALL
USER_CHARGES

@<TRIPOS>ATOM
      1 C1          0.4012    1.1837    1.1299 C.2       1 <0>         0.1236
      2 C2          1.6753    1.6236    0.9221 C.2       1 <0>        -0.1987
      3 C3          2.4429    0.4592    0.4537 C.ar      1 <0>        -0.2204
      4 C4          3.7715    0.2345    0.0725 C.ar      1 <0>         0.4973
      5 N1          4.1207   -0.9914   -0.3081 N.ar      1 <0>        -0.5963
      6 C5          3.2384   -1.9738   -0.3268 C.ar      1 <0>         0.3652
      7 N2          1.9815   -1.8061    0.0231 N.ar      1 <0>        -0.5717
      8 C6          1.5382   -0.6137    0.4188 C.ar      1 <0>         0.3516
      9 N3          0.3207   -0.1385    0.8324 N.pl3     1 <0>        -0.4430
     10 C7         -0.8976   -0.9452    0.9390 C.3       1 <0>         0.2793
     11 C8         -1.6152   -0.9932   -0.4239 C.3       1 <0>         0.0197
     12 C9         -3.0186   -0.4074   -0.1346 C.3       1 <0>         0.0543
     13 C10        -3.1406   -0.5988    1.3986 C.3       1 <0>         0.0896
     14 O1         -1.8032   -0.3412    1.8777 O.3       1 <0>        -0.3457
     15 C11        -4.1283    0.4088    1.9904 C.3       1 <0>         0.0908
     16 O2         -4.3104    0.1366    3.3814 O.3       1 <0>        -0.5699
     17 O3         -3.0745    0.9777   -0.4817 O.3       1 <0>        -0.5391
     18 F1         -0.9391   -0.2048   -1.3613 F         1 <0>        -0.1797
     19 N4          4.6980    1.2623    0.0907 N.pl3     1 <0>        -0.8177
     20 C12         2.1807    2.9888    1.1254 C.2       1 <0>         0.5978
     21 O4          3.3267    3.1646    1.4941 O.2       1 <0>        -0.5424
     22 N5          1.3746    4.0458    0.9034 N.am      1 <0>        -0.8463
     23 H1         -0.4178    1.7933    1.4821 H         1 <0>         0.1854
     24 H2          3.5619   -2.9546   -0.6425 H         1 <0>         0.2024
     25 H3         -0.6461   -1.9549    1.2637 H         1 <0>         0.1269
     26 H4         -1.6962   -2.0215   -0.7764 H         1 <0>         0.1248
     27 H5         -3.7907   -0.9700   -0.6595 H         1 <0>         0.1029
     28 H6         -3.4433   -1.6188    1.6352 H         1 <0>         0.1087
     29 H7         -3.7360    1.4181    1.8661 H         1 <0>         0.0681
     30 H8         -5.0853    0.3249    1.4755 H         1 <0>         0.0690
     31 H9         -4.9256    0.7382    3.8227 H         1 <0>         0.3871
     32 H10        -2.9133    1.1553   -1.4185 H         1 <0>         0.3915
     33 H11         4.3997    2.1831    0.1550 H         1 <0>         0.4187
     34 H12         5.6457    1.0620    0.0392 H         1 <0>         0.4064
     35 H13         0.4609    3.9057    0.6094 H         1 <0>         0.4029
     36 H14         1.7081    4.9467    1.0376 H         1 <0>         0.4071
@<TRIPOS>BOND
     1    1    9 1
     2    1    2 2
     3    1   23 1
     4    2    3 1
     5    2   20 1
     6    3    8 ar
     7    3    4 ar
     8    4    5 ar
     9    4   19 1
    10    5    6 ar
    11    6    7 ar
    12    6   24 1
    13    7    8 ar
    14    8    9 1
    15    9   10 1
    16   10   14 1
    17   10   11 1
    18   10   25 1
    19   11   12 1
    20   11   18 1
    21   11   26 1
    22   12   13 1
    23   12   17 1
    24   12   27 1
    25   13   14 1
    26   13   15 1
    27   13   28 1
    28   15   16 1
    29   15   29 1
    30   15   30 1
    31   16   31 1
    32   17   32 1
    33   19   33 1
    34   19   34 1
    35   20   21 2
    36   20   22 am
    37   22   35 1
    38   22   36 1
@<TRIPOS>MOLECULE
CHEMBL336502__8
   36    38     0     0     0
SMALL
USER_CHARGES

@<TRIPOS>ATOM
      1 C1          0.4012    1.1837    1.1299 C.2       1 <0>         0.1243
      2 C2          1.6753    1.6236    0.9221 C.2       1 <0>        -0.1975
      3 C3          2.4429    0.4592    0.4537 C.ar      1 <0>        -0.2193
      4 C4          3.7715    0.2345    0.0725 C.ar      1 <0>         0.4981
      5 N1          4.1207   -0.9914   -0.3081 N.ar      1 <0>        -0.5956
      6 C5          3.2384   -1.9738   -0.3268 C.ar      1 <0>         0.3660
      7 N2          1.9815   -1.8061    0.0231 N.ar      1 <0>        -0.5728
      8 C6          1.5382   -0.6137    0.4188 C.ar      1 <0>         0.3481
      9 N3          0.3207   -0.1385    0.8324 N.pl3     1 <0>        -0.4417
     10 C7         -0.8976   -0.9452    0.9390 C.3       1 <0>         0.2775
     11 C8         -0.9844   -1.6066    2.3323 C.3       1 <0>         0.0175
     12 C9         -2.4896   -1.5580    2.6779 C.3       1 <0>         0.0562
     13 C10        -3.1341   -0.8729    1.4524 C.3       1 <0>         0.0888
     14 O1         -2.0675   -0.1023    0.8571 O.3       1 <0>        -0.3476
     15 C11        -4.2734    0.0475    1.8948 C.3       1 <0>         0.0929
     16 O2         -4.9301    0.5800    0.7427 O.3       1 <0>        -0.5712
     17 O3         -2.7076   -0.7818    3.8577 O.3       1 <0>        -0.5387
     18 F1         -0.2428   -0.8776    3.2681 F         1 <0>        -0.1788
     19 N4          4.6980    1.2623    0.0907 N.pl3     1 <0>        -0.8168
     20 C12         2.1807    2.9888    1.1254 C.2       1 <0>         0.5979
     21 O4          3.3267    3.1646    1.4941 O.2       1 <0>        -0.5420
     22 N5          1.3746    4.0458    0.9034 N.am      1 <0>        -0.8461
     23 H1         -0.4178    1.7933    1.4821 H         1 <0>         0.1861
     24 H2          3.5619   -2.9546   -0.6425 H         1 <0>         0.2033
     25 H3         -0.9200   -1.7027    0.1555 H         1 <0>         0.1299
     26 H4         -0.6359   -2.6385    2.2877 H         1 <0>         0.1213
     27 H5         -2.8852   -2.5658    2.8040 H         1 <0>         0.1022
     28 H6         -3.5005   -1.6205    0.7489 H         1 <0>         0.1062
     29 H7         -4.9883   -0.5198    2.4907 H         1 <0>         0.0701
     30 H8         -3.8692    0.8644    2.4927 H         1 <0>         0.0674
     31 H9         -5.6651    1.1739    0.9483 H         1 <0>         0.3865
     32 H10        -2.2735   -1.1346    4.6464 H         1 <0>         0.3912
     33 H11         4.3997    2.1831    0.1550 H         1 <0>         0.4190
     34 H12         5.6457    1.0620    0.0392 H         1 <0>         0.4068
     35 H13         0.4609    3.9057    0.6094 H         1 <0>         0.4033
     36 H14         1.7081    4.9467    1.0376 H         1 <0>         0.4075
@<TRIPOS>BOND
     1    1    9 1
     2    1    2 2
     3    1   23 1
     4    2    3 1
     5    2   20 1
     6    3    8 ar
     7    3    4 ar
     8    4    5 ar
     9    4   19 1
    10    5    6 ar
    11    6    7 ar
    12    6   24 1
    13    7    8 ar
    14    8    9 1
    15    9   10 1
    16   10   14 1
    17   10   11 1
    18   10   25 1
    19   11   12 1
    20   11   18 1
    21   11   26 1
    22   12   13 1
    23   12   17 1
    24   12   27 1
    25   13   14 1
    26   13   15 1
    27   13   28 1
    28   15   16 1
    29   15   29 1
    30   15   30 1
    31   16   31 1
    32   17   32 1
    33   19   33 1
    34   19   34 1
    35   20   21 2
    36   20   22 am
    37   22   35 1
    38   22   36 1
@<TRIPOS>MOLECULE
CHEMBL336502__9
   36    38     0     0     0
SMALL
USER_CHARGES

@<TRIPOS>ATOM
      1 C1          0.4012    1.1837    1.1299 C.2       1 <0>         0.1215
      2 C2          1.6753    1.6236    0.9221 C.2       1 <0>        -0.1965
      3 C3          2.4429    0.4592    0.4537 C.ar      1 <0>        -0.2196
      4 C4          3.7715    0.2345    0.0725 C.ar      1 <0>         0.4984
      5 N1          4.1207   -0.9914   -0.3081 N.ar      1 <0>        -0.5956
      6 C5          3.2384   -1.9738   -0.3268 C.ar      1 <0>         0.3661
      7 N2          1.9815   -1.8061    0.0231 N.ar      1 <0>        -0.5734
      8 C6          1.5382   -0.6137    0.4188 C.ar      1 <0>         0.3467
      9 N3          0.3207   -0.1385    0.8324 N.pl3     1 <0>        -0.4459
     10 C7         -0.8976   -0.9452    0.9390 C.3       1 <0>         0.2803
     11 C8         -0.9790   -1.6146    2.3340 C.3       1 <0>         0.0147
     12 C9         -2.5112   -1.8292    2.4690 C.3       1 <0>         0.0602
     13 C10        -3.0807   -0.5964    1.7346 C.3       1 <0>         0.0896
     14 O1         -2.0603   -0.1056    0.8574 O.3       1 <0>        -0.3477
     15 C11        -4.3133   -0.9995    0.9227 C.3       1 <0>         0.0709
     16 O2         -4.9019    0.1652    0.3404 O.3       1 <0>        -0.5627
     17 O3         -2.9056   -1.8300    3.8425 O.3       1 <0>        -0.5356
     18 F1         -0.4998   -0.7596    3.3323 F         1 <0>        -0.1749
     19 N4          4.6980    1.2623    0.0907 N.pl3     1 <0>        -0.8165
     20 C12         2.1807    2.9888    1.1254 C.2       1 <0>         0.5975
     21 O4          3.3267    3.1646    1.4941 O.2       1 <0>        -0.5420
     22 N5          1.3746    4.0458    0.9034 N.am      1 <0>        -0.8458
     23 H1         -0.4178    1.7933    1.4821 H         1 <0>         0.1866
     24 H2          3.5619   -2.9546   -0.6425 H         1 <0>         0.2033
     25 H3         -0.9204   -1.7005    0.1534 H         1 <0>         0.1344
     26 H4         -0.4467   -2.5657    2.3451 H         1 <0>         0.1250
     27 H5         -2.8188   -2.7511    1.9755 H         1 <0>         0.1046
     28 H6         -3.3485    0.1738    2.4578 H         1 <0>         0.1139
     29 H7         -4.0183   -1.6908    0.1333 H         1 <0>         0.0562
     30 H8         -5.0375   -1.4838    1.5778 H         1 <0>         0.0691
     31 H9         -5.6901   -0.0157   -0.1897 H         1 <0>         0.3860
     32 H10        -2.5026   -2.5353    4.3670 H         1 <0>         0.3938
     33 H11         4.3997    2.1831    0.1550 H         1 <0>         0.4192
     34 H12         5.6457    1.0620    0.0392 H         1 <0>         0.4069
     35 H13         0.4609    3.9057    0.6094 H         1 <0>         0.4036
     36 H14         1.7081    4.9467    1.0376 H         1 <0>         0.4077
@<TRIPOS>BOND
     1    1    9 1
     2    1    2 2
     3    1   23 1
     4    2    3 1
     5    2   20 1
     6    3    8 ar
     7    3    4 ar
     8    4    5 ar
     9    4   19 1
    10    5    6 ar
    11    6    7 ar
    12    6   24 1
    13    7    8 ar
    14    8    9 1
    15    9   10 1
    16   10   14 1
    17   10   11 1
    18   10   25 1
    19   11   12 1
    20   11   18 1
    21   11   26 1
    22   12   13 1
    23   12   17 1
    24   12   27 1
    25   13   14 1
    26   13   15 1
    27   13   28 1
    28   15   16 1
    29   15   29 1
    30   15   30 1
    31   16   31 1
    32   17   32 1
    33   19   33 1
    34   19   34 1
    35   20   21 2
    36   20   22 am
    37   22   35 1
    38   22   36 1
@<TRIPOS>MOLECULE
CHEMBL336502__10
   36    38     0     0     0
SMALL
USER_CHARGES

@<TRIPOS>ATOM
      1 C1          0.4012    1.1837    1.1299 C.2       1 <0>         0.1199
      2 C2          1.6753    1.6236    0.9221 C.2       1 <0>        -0.1953
      3 C3          2.4429    0.4592    0.4537 C.ar      1 <0>        -0.2197
      4 C4          3.7715    0.2345    0.0725 C.ar      1 <0>         0.4983
      5 N1          4.1207   -0.9914   -0.3081 N.ar      1 <0>        -0.5952
      6 C5          3.2384   -1.9738   -0.3268 C.ar      1 <0>         0.3669
      7 N2          1.9815   -1.8061    0.0231 N.ar      1 <0>        -0.5723
      8 C6          1.5382   -0.6137    0.4188 C.ar      1 <0>         0.3492
      9 N3          0.3207   -0.1385    0.8324 N.pl3     1 <0>        -0.4432
     10 C7         -0.8976   -0.9452    0.9390 C.3       1 <0>         0.2806
     11 C8         -0.9844   -1.6066    2.3323 C.3       1 <0>         0.0173
     12 C9         -2.4896   -1.5580    2.6779 C.3       1 <0>         0.0576
     13 C10        -3.1341   -0.8729    1.4524 C.3       1 <0>         0.0896
     14 O1         -2.0675   -0.1023    0.8571 O.3       1 <0>        -0.3473
     15 C11        -4.2734    0.0475    1.8948 C.3       1 <0>         0.0867
     16 O2         -4.9301    0.5800    0.7427 O.3       1 <0>        -0.5642
     17 O3         -3.0083   -2.8792    2.8433 O.3       1 <0>        -0.5425
     18 F1         -0.2428   -0.8776    3.2681 F         1 <0>        -0.1841
     19 N4          4.6980    1.2623    0.0907 N.pl3     1 <0>        -0.8167
     20 C12         2.1807    2.9888    1.1254 C.2       1 <0>         0.5975
     21 O4          3.3267    3.1646    1.4941 O.2       1 <0>        -0.5413
     22 N5          1.3746    4.0458    0.9034 N.am      1 <0>        -0.8462
     23 H1         -0.4178    1.7933    1.4821 H         1 <0>         0.1863
     24 H2          3.5619   -2.9546   -0.6425 H         1 <0>         0.2037
     25 H3         -0.9200   -1.7027    0.1555 H         1 <0>         0.1320
     26 H4         -0.6359   -2.6385    2.2877 H         1 <0>         0.1248
     27 H5         -2.6559   -0.9659    3.5778 H         1 <0>         0.0980
     28 H6         -3.5005   -1.6205    0.7489 H         1 <0>         0.1064
     29 H7         -4.9883   -0.5198    2.4907 H         1 <0>         0.0740
     30 H8         -3.8692    0.8644    2.4927 H         1 <0>         0.0601
     31 H9         -5.6651    1.1739    0.9483 H         1 <0>         0.3879
     32 H10        -2.5950   -3.3769    3.5620 H         1 <0>         0.3942
     33 H11         4.3997    2.1831    0.1550 H         1 <0>         0.4190
     34 H12         5.6457    1.0620    0.0392 H         1 <0>         0.4070
     35 H13         0.4609    3.9057    0.6094 H         1 <0>         0.4032
     36 H14         1.7081    4.9467    1.0376 H         1 <0>         0.4077
@<TRIPOS>BOND
     1    1    9 1
     2    1    2 2
     3    1   23 1
     4    2    3 1
     5    2   20 1
     6    3    8 ar
     7    3    4 ar
     8    4    5 ar
     9    4   19 1
    10    5    6 ar
    11    6    7 ar
    12    6   24 1
    13    7    8 ar
    14    8    9 1
    15    9   10 1
    16   10   14 1
    17   10   11 1
    18   10   25 1
    19   11   12 1
    20   11   18 1
    21   11   26 1
    22   12   13 1
    23   12   17 1
    24   12   27 1
    25   13   14 1
    26   13   15 1
    27   13   28 1
    28   15   16 1
    29   15   29 1
    30   15   30 1
    31   16   31 1
    32   17   32 1
    33   19   33 1
    34   19   34 1
    35   20   21 2
    36   20   22 am
    37   22   35 1
    38   22   36 1
@<TRIPOS>MOLECULE
CHEMBL336502__11
   36    38     0     0     0
SMALL
USER_CHARGES

@<TRIPOS>ATOM
      1 C1          0.4012    1.1837    1.1299 C.2       1 <0>         0.1202
      2 C2          1.6753    1.6236    0.9221 C.2       1 <0>        -0.1969
      3 C3          2.4429    0.4592    0.4537 C.ar      1 <0>        -0.2199
      4 C4          3.7715    0.2345    0.0725 C.ar      1 <0>         0.4981
      5 N1          4.1207   -0.9914   -0.3081 N.ar      1 <0>        -0.5956
      6 C5          3.2384   -1.9738   -0.3268 C.ar      1 <0>         0.3659
      7 N2          1.9815   -1.8061    0.0231 N.ar      1 <0>        -0.5726
      8 C6          1.5382   -0.6137    0.4188 C.ar      1 <0>         0.3469
      9 N3          0.3207   -0.1385    0.8324 N.pl3     1 <0>        -0.4469
     10 C7         -0.8976   -0.9452    0.9390 C.3       1 <0>         0.2862
     11 C8         -0.9790   -1.6146    2.3340 C.3       1 <0>         0.0165
     12 C9         -2.5112   -1.8292    2.4690 C.3       1 <0>         0.0593
     13 C10        -3.0807   -0.5964    1.7346 C.3       1 <0>         0.0945
     14 O1         -2.0603   -0.1056    0.8574 O.3       1 <0>        -0.3519
     15 C11        -4.3133   -0.9995    0.9227 C.3       1 <0>         0.0773
     16 O2         -4.9019    0.1652    0.3404 O.3       1 <0>        -0.5695
     17 O3         -2.9144   -3.0378    1.8220 O.3       1 <0>        -0.5402
     18 F1         -0.4998   -0.7596    3.3323 F         1 <0>        -0.1795
     19 N4          4.6980    1.2623    0.0907 N.pl3     1 <0>        -0.8167
     20 C12         2.1807    2.9888    1.1254 C.2       1 <0>         0.5976
     21 O4          3.3267    3.1646    1.4941 O.2       1 <0>        -0.5421
     22 N5          1.3746    4.0458    0.9034 N.am      1 <0>        -0.8460
     23 H1         -0.4178    1.7933    1.4821 H         1 <0>         0.1865
     24 H2          3.5619   -2.9546   -0.6425 H         1 <0>         0.2032
     25 H3         -0.9204   -1.7005    0.1534 H         1 <0>         0.1349
     26 H4         -0.4467   -2.5657    2.3451 H         1 <0>         0.1248
     27 H5         -2.8120   -1.8298    3.5167 H         1 <0>         0.1066
     28 H6         -3.3485    0.1738    2.4578 H         1 <0>         0.1139
     29 H7         -4.0183   -1.6908    0.1333 H         1 <0>         0.0637
     30 H8         -5.0375   -1.4838    1.5778 H         1 <0>         0.0660
     31 H9         -5.6901   -0.0157   -0.1897 H         1 <0>         0.3849
     32 H10        -2.5121   -3.8354    2.1924 H         1 <0>         0.3939
     33 H11         4.3997    2.1831    0.1550 H         1 <0>         0.4191
     34 H12         5.6457    1.0620    0.0392 H         1 <0>         0.4068
     35 H13         0.4609    3.9057    0.6094 H         1 <0>         0.4036
     36 H14         1.7081    4.9467    1.0376 H         1 <0>         0.4076
@<TRIPOS>BOND
     1    1    9 1
     2    1    2 2
     3    1   23 1
     4    2    3 1
     5    2   20 1
     6    3    8 ar
     7    3    4 ar
     8    4    5 ar
     9    4   19 1
    10    5    6 ar
    11    6    7 ar
    12    6   24 1
    13    7    8 ar
    14    8    9 1
    15    9   10 1
    16   10   14 1
    17   10   11 1
    18   10   25 1
    19   11   12 1
    20   11   18 1
    21   11   26 1
    22   12   13 1
    23   12   17 1
    24   12   27 1
    25   13   14 1
    26   13   15 1
    27   13   28 1
    28   15   16 1
    29   15   29 1
    30   15   30 1
    31   16   31 1
    32   17   32 1
    33   19   33 1
    34   19   34 1
    35   20   21 2
    36   20   22 am
    37   22   35 1
    38   22   36 1
@<TRIPOS>MOLECULE
CHEMBL336502__12
   36    38     0     0     0
SMALL
USER_CHARGES

@<TRIPOS>ATOM
      1 C1          0.4012    1.1837    1.1299 C.2       1 <0>         0.1103
      2 C2          1.6753    1.6236    0.9221 C.2       1 <0>        -0.1926
      3 C3          2.4429    0.4592    0.4537 C.ar      1 <0>        -0.2223
      4 C4          3.7715    0.2345    0.0725 C.ar      1 <0>         0.4980
      5 N1          4.1207   -0.9914   -0.3081 N.ar      1 <0>        -0.5946
      6 C5          3.2384   -1.9738   -0.3268 C.ar      1 <0>         0.3677
      7 N2          1.9815   -1.8061    0.0231 N.ar      1 <0>        -0.5662
      8 C6          1.5382   -0.6137    0.4188 C.ar      1 <0>         0.3492
      9 N3          0.3207   -0.1385    0.8324 N.pl3     1 <0>        -0.4476
     10 C7         -0.8976   -0.9452    0.9390 C.3       1 <0>         0.2808
     11 C8         -0.9844   -1.6066    2.3323 C.3       1 <0>         0.0191
     12 C9         -2.4896   -1.5580    2.6779 C.3       1 <0>         0.0579
     13 C10        -3.1341   -0.8729    1.4524 C.3       1 <0>         0.0908
     14 O1         -2.0675   -0.1023    0.8571 O.3       1 <0>        -0.3445
     15 C11        -4.2734    0.0475    1.8948 C.3       1 <0>         0.0926
     16 O2         -4.9301    0.5800    0.7427 O.3       1 <0>        -0.5708
     17 O3         -2.7076   -0.7818    3.8577 O.3       1 <0>        -0.5432
     18 F1         -0.5372   -2.9310    2.2750 F         1 <0>        -0.1790
     19 N4          4.6980    1.2623    0.0907 N.pl3     1 <0>        -0.8168
     20 C12         2.1807    2.9888    1.1254 C.2       1 <0>         0.5969
     21 O4          3.3267    3.1646    1.4941 O.2       1 <0>        -0.5409
     22 N5          1.3746    4.0458    0.9034 N.am      1 <0>        -0.8455
     23 H1         -0.4178    1.7933    1.4821 H         1 <0>         0.1889
     24 H2          3.5619   -2.9546   -0.6425 H         1 <0>         0.2041
     25 H3         -0.9200   -1.7027    0.1555 H         1 <0>         0.1275
     26 H4         -0.4066   -1.0386    3.0614 H         1 <0>         0.1150
     27 H5         -2.8852   -2.5658    2.8040 H         1 <0>         0.1035
     28 H6         -3.5005   -1.6205    0.7489 H         1 <0>         0.1071
     29 H7         -4.9883   -0.5198    2.4907 H         1 <0>         0.0710
     30 H8         -3.8692    0.8644    2.4927 H         1 <0>         0.0679
     31 H9         -5.6651    1.1739    0.9483 H         1 <0>         0.3868
     32 H10        -2.2735   -1.1346    4.6464 H         1 <0>         0.3914
     33 H11         4.3997    2.1831    0.1550 H         1 <0>         0.4189
     34 H12         5.6457    1.0620    0.0392 H         1 <0>         0.4071
     35 H13         0.4609    3.9057    0.6094 H         1 <0>         0.4037
     36 H14         1.7081    4.9467    1.0376 H         1 <0>         0.4080
@<TRIPOS>BOND
     1    1    9 1
     2    1    2 2
     3    1   23 1
     4    2    3 1
     5    2   20 1
     6    3    8 ar
     7    3    4 ar
     8    4    5 ar
     9    4   19 1
    10    5    6 ar
    11    6    7 ar
    12    6   24 1
    13    7    8 ar
    14    8    9 1
    15    9   10 1
    16   10   14 1
    17   10   11 1
    18   10   25 1
    19   11   12 1
    20   11   18 1
    21   11   26 1
    22   12   13 1
    23   12   17 1
    24   12   27 1
    25   13   14 1
    26   13   15 1
    27   13   28 1
    28   15   16 1
    29   15   29 1
    30   15   30 1
    31   16   31 1
    32   17   32 1
    33   19   33 1
    34   19   34 1
    35   20   21 2
    36   20   22 am
    37   22   35 1
    38   22   36 1
@<TRIPOS>MOLECULE
CHEMBL336502__13
   36    38     0     0     0
SMALL
USER_CHARGES

@<TRIPOS>ATOM
      1 C1          0.4012    1.1837    1.1299 C.2       1 <0>         0.1069
      2 C2          1.6753    1.6236    0.9221 C.2       1 <0>        -0.1915
      3 C3          2.4429    0.4592    0.4537 C.ar      1 <0>        -0.2229
      4 C4          3.7715    0.2345    0.0725 C.ar      1 <0>         0.4979
      5 N1          4.1207   -0.9914   -0.3081 N.ar      1 <0>        -0.5949
      6 C5          3.2384   -1.9738   -0.3268 C.ar      1 <0>         0.3673
      7 N2          1.9815   -1.8061    0.0231 N.ar      1 <0>        -0.5656
      8 C6          1.5382   -0.6137    0.4188 C.ar      1 <0>         0.3506
      9 N3          0.3207   -0.1385    0.8324 N.pl3     1 <0>        -0.4504
     10 C7         -0.8976   -0.9452    0.9390 C.3       1 <0>         0.2828
     11 C8         -0.9790   -1.6146    2.3340 C.3       1 <0>         0.0170
     12 C9         -2.5112   -1.8292    2.4690 C.3       1 <0>         0.0612
     13 C10        -3.0807   -0.5964    1.7346 C.3       1 <0>         0.0922
     14 O1         -2.0603   -0.1056    0.8574 O.3       1 <0>        -0.3438
     15 C11        -4.3133   -0.9995    0.9227 C.3       1 <0>         0.0699
     16 O2         -4.9019    0.1652    0.3404 O.3       1 <0>        -0.5628
     17 O3         -2.9056   -1.8300    3.8425 O.3       1 <0>        -0.5406
     18 F1         -0.2957   -2.8353    2.3482 F         1 <0>        -0.1750
     19 N4          4.6980    1.2623    0.0907 N.pl3     1 <0>        -0.8170
     20 C12         2.1807    2.9888    1.1254 C.2       1 <0>         0.5965
     21 O4          3.3267    3.1646    1.4941 O.2       1 <0>        -0.5409
     22 N5          1.3746    4.0458    0.9034 N.am      1 <0>        -0.8455
     23 H1         -0.4178    1.7933    1.4821 H         1 <0>         0.1888
     24 H2          3.5619   -2.9546   -0.6425 H         1 <0>         0.2036
     25 H3         -0.9204   -1.7005    0.1534 H         1 <0>         0.1302
     26 H4         -0.6056   -0.9485    3.1118 H         1 <0>         0.1203
     27 H5         -2.8188   -2.7511    1.9755 H         1 <0>         0.1008
     28 H6         -3.3485    0.1738    2.4578 H         1 <0>         0.1169
     29 H7         -4.0183   -1.6908    0.1333 H         1 <0>         0.0571
     30 H8         -5.0375   -1.4838    1.5778 H         1 <0>         0.0703
     31 H9         -5.6901   -0.0157   -0.1897 H         1 <0>         0.3868
     32 H10        -2.5026   -2.5353    4.3670 H         1 <0>         0.3962
     33 H11         4.3997    2.1831    0.1550 H         1 <0>         0.4188
     34 H12         5.6457    1.0620    0.0392 H         1 <0>         0.4070
     35 H13         0.4609    3.9057    0.6094 H         1 <0>         0.4038
     36 H14         1.7081    4.9467    1.0376 H         1 <0>         0.4080
@<TRIPOS>BOND
     1    1    9 1
     2    1    2 2
     3    1   23 1
     4    2    3 1
     5    2   20 1
     6    3    8 ar
     7    3    4 ar
     8    4    5 ar
     9    4   19 1
    10    5    6 ar
    11    6    7 ar
    12    6   24 1
    13    7    8 ar
    14    8    9 1
    15    9   10 1
    16   10   14 1
    17   10   11 1
    18   10   25 1
    19   11   12 1
    20   11   18 1
    21   11   26 1
    22   12   13 1
    23   12   17 1
    24   12   27 1
    25   13   14 1
    26   13   15 1
    27   13   28 1
    28   15   16 1
    29   15   29 1
    30   15   30 1
    31   16   31 1
    32   17   32 1
    33   19   33 1
    34   19   34 1
    35   20   21 2
    36   20   22 am
    37   22   35 1
    38   22   36 1
@<TRIPOS>MOLECULE
CHEMBL336502__14
   36    38     0     0     0
SMALL
USER_CHARGES

@<TRIPOS>ATOM
      1 C1          0.4012    1.1837    1.1299 C.2       1 <0>         0.1064
      2 C2          1.6753    1.6236    0.9221 C.2       1 <0>        -0.1910
      3 C3          2.4429    0.4592    0.4537 C.ar      1 <0>        -0.2230
      4 C4          3.7715    0.2345    0.0725 C.ar      1 <0>         0.4980
      5 N1          4.1207   -0.9914   -0.3081 N.ar      1 <0>        -0.5944
      6 C5          3.2384   -1.9738   -0.3268 C.ar      1 <0>         0.3684
      7 N2          1.9815   -1.8061    0.0231 N.ar      1 <0>        -0.5656
      8 C6          1.5382   -0.6137    0.4188 C.ar      1 <0>         0.3503
      9 N3          0.3207   -0.1385    0.8324 N.pl3     1 <0>        -0.4485
     10 C7         -0.8976   -0.9452    0.9390 C.3       1 <0>         0.2804
     11 C8         -0.9844   -1.6066    2.3323 C.3       1 <0>         0.0207
     12 C9         -2.4896   -1.5580    2.6779 C.3       1 <0>         0.0585
     13 C10        -3.1341   -0.8729    1.4524 C.3       1 <0>         0.0873
     14 O1         -2.0675   -0.1023    0.8571 O.3       1 <0>        -0.3439
     15 C11        -4.2734    0.0475    1.8948 C.3       1 <0>         0.0868
     16 O2         -4.9301    0.5800    0.7427 O.3       1 <0>        -0.5642
     17 O3         -3.0083   -2.8792    2.8433 O.3       1 <0>        -0.5378
     18 F1         -0.5372   -2.9310    2.2750 F         1 <0>        -0.1735
     19 N4          4.6980    1.2623    0.0907 N.pl3     1 <0>        -0.8168
     20 C12         2.1807    2.9888    1.1254 C.2       1 <0>         0.5966
     21 O4          3.3267    3.1646    1.4941 O.2       1 <0>        -0.5404
     22 N5          1.3746    4.0458    0.9034 N.am      1 <0>        -0.8457
     23 H1         -0.4178    1.7933    1.4821 H         1 <0>         0.1888
     24 H2          3.5619   -2.9546   -0.6425 H         1 <0>         0.2043
     25 H3         -0.9200   -1.7027    0.1555 H         1 <0>         0.1285
     26 H4         -0.4066   -1.0386    3.0614 H         1 <0>         0.1119
     27 H5         -2.6559   -0.9659    3.5778 H         1 <0>         0.0978
     28 H6         -3.5005   -1.6205    0.7489 H         1 <0>         0.1059
     29 H7         -4.9883   -0.5198    2.4907 H         1 <0>         0.0744
     30 H8         -3.8692    0.8644    2.4927 H         1 <0>         0.0601
     31 H9         -5.6651    1.1739    0.9483 H         1 <0>         0.3878
     32 H10        -2.5950   -3.3769    3.5620 H         1 <0>         0.3943
     33 H11         4.3997    2.1831    0.1550 H         1 <0>         0.4188
     34 H12         5.6457    1.0620    0.0392 H         1 <0>         0.4072
     35 H13         0.4609    3.9057    0.6094 H         1 <0>         0.4035
     36 H14         1.7081    4.9467    1.0376 H         1 <0>         0.4081
@<TRIPOS>BOND
     1    1    9 1
     2    1    2 2
     3    1   23 1
     4    2    3 1
     5    2   20 1
     6    3    8 ar
     7    3    4 ar
     8    4    5 ar
     9    4   19 1
    10    5    6 ar
    11    6    7 ar
    12    6   24 1
    13    7    8 ar
    14    8    9 1
    15    9   10 1
    16   10   14 1
    17   10   11 1
    18   10   25 1
    19   11   12 1
    20   11   18 1
    21   11   26 1
    22   12   13 1
    23   12   17 1
    24   12   27 1
    25   13   14 1
    26   13   15 1
    27   13   28 1
    28   15   16 1
    29   15   29 1
    30   15   30 1
    31   16   31 1
    32   17   32 1
    33   19   33 1
    34   19   34 1
    35   20   21 2
    36   20   22 am
    37   22   35 1
    38   22   36 1
@<TRIPOS>MOLECULE
CHEMBL336502__15
   36    38     0     0     0
SMALL
USER_CHARGES

@<TRIPOS>ATOM
      1 C1          0.4012    1.1837    1.1299 C.2       1 <0>         0.1060
      2 C2          1.6753    1.6236    0.9221 C.2       1 <0>        -0.1924
      3 C3          2.4429    0.4592    0.4537 C.ar      1 <0>        -0.2234
      4 C4          3.7715    0.2345    0.0725 C.ar      1 <0>         0.4975
      5 N1          4.1207   -0.9914   -0.3081 N.ar      1 <0>        -0.5951
      6 C5          3.2384   -1.9738   -0.3268 C.ar      1 <0>         0.3669
      7 N2          1.9815   -1.8061    0.0231 N.ar      1 <0>        -0.5647
      8 C6          1.5382   -0.6137    0.4188 C.ar      1 <0>         0.3508
      9 N3          0.3207   -0.1385    0.8324 N.pl3     1 <0>        -0.4509
     10 C7         -0.8976   -0.9452    0.9390 C.3       1 <0>         0.2864
     11 C8         -0.9790   -1.6146    2.3340 C.3       1 <0>         0.0193
     12 C9         -2.5112   -1.8292    2.4690 C.3       1 <0>         0.0587
     13 C10        -3.0807   -0.5964    1.7346 C.3       1 <0>         0.0946
     14 O1         -2.0603   -0.1056    0.8574 O.3       1 <0>        -0.3482
     15 C11        -4.3133   -0.9995    0.9227 C.3       1 <0>         0.0766
     16 O2         -4.9019    0.1652    0.3404 O.3       1 <0>        -0.5700
     17 O3         -2.9144   -3.0378    1.8220 O.3       1 <0>        -0.5419
     18 F1         -0.2957   -2.8353    2.3482 F         1 <0>        -0.1734
     19 N4          4.6980    1.2623    0.0907 N.pl3     1 <0>        -0.8173
     20 C12         2.1807    2.9888    1.1254 C.2       1 <0>         0.5965
     21 O4          3.3267    3.1646    1.4941 O.2       1 <0>        -0.5411
     22 N5          1.3746    4.0458    0.9034 N.am      1 <0>        -0.8458
     23 H1         -0.4178    1.7933    1.4821 H         1 <0>         0.1885
     24 H2          3.5619   -2.9546   -0.6425 H         1 <0>         0.2034
     25 H3         -0.9204   -1.7005    0.1534 H         1 <0>         0.1300
     26 H4         -0.6056   -0.9485    3.1118 H         1 <0>         0.1178
     27 H5         -2.8120   -1.8298    3.5167 H         1 <0>         0.1061
     28 H6         -3.3485    0.1738    2.4578 H         1 <0>         0.1159
     29 H7         -4.0183   -1.6908    0.1333 H         1 <0>         0.0642
     30 H8         -5.0375   -1.4838    1.5778 H         1 <0>         0.0669
     31 H9         -5.6901   -0.0157   -0.1897 H         1 <0>         0.3855
     32 H10        -2.5121   -3.8354    2.1924 H         1 <0>         0.3954
     33 H11         4.3997    2.1831    0.1550 H         1 <0>         0.4187
     34 H12         5.6457    1.0620    0.0392 H         1 <0>         0.4069
     35 H13         0.4609    3.9057    0.6094 H         1 <0>         0.4037
     36 H14         1.7081    4.9467    1.0376 H         1 <0>         0.4078
@<TRIPOS>BOND
     1    1    9 1
     2    1    2 2
     3    1   23 1
     4    2    3 1
     5    2   20 1
     6    3    8 ar
     7    3    4 ar
     8    4    5 ar
     9    4   19 1
    10    5    6 ar
    11    6    7 ar
    12    6   24 1
    13    7    8 ar
    14    8    9 1
    15    9   10 1
    16   10   14 1
    17   10   11 1
    18   10   25 1
    19   11   12 1
    20   11   18 1
    21   11   26 1
    22   12   13 1
    23   12   17 1
    24   12   27 1
    25   13   14 1
    26   13   15 1
    27   13   28 1
    28   15   16 1
    29   15   29 1
    30   15   30 1
    31   16   31 1
    32   17   32 1
    33   19   33 1
    34   19   34 1
    35   20   21 2
    36   20   22 am
    37   22   35 1
    38   22   36 1
@<TRIPOS>MOLECULE
CHEMBL100056
   51    54     0     0     0
SMALL
USER_CHARGES

@<TRIPOS>ATOM
      1 C1         -0.0187    1.5258    0.0104 C.3       1 <0>        -0.1710
      2 C2          0.0021   -0.0041    0.0020 C.3       1 <0>         0.1362
      3 N1          0.6878   -0.4765   -1.2033 N.pl3     1 <0>        -0.5773
      4 C3         -0.0294   -0.7093   -2.3768 C.ar      1 <0>         0.3824
      5 C4          0.2592    0.0020   -3.5389 C.ar      1 <0>         0.0974
      6 C5         -0.4390   -0.3005   -4.7037 C.ar      1 <0>        -0.0735
      7 C6         -1.4212   -1.2794   -4.6556 C.ar      1 <0>        -0.1364
      8 C7         -1.6761   -1.9213   -3.4595 C.ar      1 <0>         0.1836
      9 N2         -0.9871   -1.6263   -2.3726 N.ar      1 <0>        -0.4691
     10 Cl1        -2.9188   -3.1312   -3.3841 Cl        1 <0>        -0.0172
     11 N3          1.1873    1.0408   -3.5541 N.am      1 <0>        -0.5377
     12 C8          2.3528    1.0748   -2.9252 C.2       1 <0>         0.5759
     13 O1          3.0365    2.0688   -3.0757 O.2       1 <0>        -0.5179
     14 C9          2.8892    0.0171   -2.0630 C.ar      1 <0>        -0.1941
     15 C10         2.0554   -0.6913   -1.1915 C.ar      1 <0>         0.4071
     16 N4          2.5741   -1.5848   -0.3616 N.ar      1 <0>        -0.4939
     17 C11         3.8622   -1.8676   -0.3601 C.ar      1 <0>         0.1563
     18 C12         4.7345   -1.2399   -1.2304 C.ar      1 <0>        -0.1482
     19 C13         4.2542   -0.2882   -2.0933 C.ar      1 <0>         0.0000
     20 C14         6.1974   -1.6016   -1.2327 C.3       1 <0>        -0.0672
     21 C15         6.4390   -2.7431   -2.2225 C.3       1 <0>        -0.0768
     22 C16         7.9020   -3.1048   -2.2248 C.ar      1 <0>        -0.0357
     23 C17         8.7694   -2.4687   -3.0942 C.ar      1 <0>        -0.1755
     24 C18        10.1123   -2.7978   -3.0999 C.ar      1 <0>        -0.0686
     25 C19        10.5920   -3.7633   -2.2364 C.ar      1 <0>        -0.2023
     26 C20         9.7238   -4.4037   -1.3617 C.ar      1 <0>         0.2173
     27 C21         8.3759   -4.0668   -1.3550 C.ar      1 <0>        -0.1951
     28 N5         10.2055   -5.3804   -0.4872 N.pl3     1 <0>        -0.8798
     29 C22         0.8376    2.2201   -4.3500 C.3       1 <0>         0.0639
     30 H1          1.0039    1.9031    0.0027 H         1 <0>         0.0549
     31 H2         -0.5459    1.8868   -0.8726 H         1 <0>         0.0540
     32 H3         -0.5289    1.8773    0.9072 H         1 <0>         0.0735
     33 H4          0.5293   -0.3651    0.8851 H         1 <0>         0.0855
     34 H5         -1.0205   -0.3814    0.0098 H         1 <0>         0.0845
     35 H6         -0.2206    0.2159   -5.6268 H         1 <0>         0.1593
     36 H7         -1.9797   -1.5367   -5.5434 H         1 <0>         0.1586
     37 H8          4.2426   -2.6030    0.3332 H         1 <0>         0.1667
     38 H9          4.9193    0.2181   -2.7772 H         1 <0>         0.1478
     39 H10         6.7859   -0.7333   -1.5288 H         1 <0>         0.0822
     40 H11         6.4950   -1.9185   -0.2331 H         1 <0>         0.0830
     41 H12         5.8505   -3.6114   -1.9263 H         1 <0>         0.0747
     42 H13         6.1415   -2.4263   -3.2221 H         1 <0>         0.0746
     43 H14         8.3969   -1.7135   -3.7704 H         1 <0>         0.1178
     44 H15        10.7868   -2.2997   -3.7805 H         1 <0>         0.1209
     45 H16        11.6410   -4.0202   -2.2416 H         1 <0>         0.1180
     46 H17         7.6988   -4.5600   -0.6733 H         1 <0>         0.1190
     47 H18        11.1474   -5.6122   -0.4903 H         1 <0>         0.3982
     48 H19         9.5981   -5.8270    0.1232 H         1 <0>         0.3980
     49 H20         0.2956    2.9313   -3.7267 H         1 <0>         0.0694
     50 H21         1.7476    2.6870   -4.7267 H         1 <0>         0.0956
     51 H22         0.2095    1.9193   -5.1885 H         1 <0>         0.0810
@<TRIPOS>BOND
     1    1    2 1
     2    1   30 1
     3    1   31 1
     4    1   32 1
     5    2    3 1
     6    2   33 1
     7    2   34 1
     8    3   15 1
     9    3    4 1
    10    4    9 ar
    11    4    5 ar
    12    5    6 ar
    13    5   11 1
    14    6    7 ar
    15    6   35 1
    16    7    8 ar
    17    7   36 1
    18    8    9 ar
    19    8   10 1
    20   11   12 am
    21   11   29 1
    22   12   13 2
    23   12   14 1
    24   14   19 ar
    25   14   15 ar
    26   15   16 ar
    27   16   17 ar
    28   17   18 ar
    29   17   37 1
    30   18   19 ar
    31   18   20 1
    32   19   38 1
    33   20   21 1
    34   20   39 1
    35   20   40 1
    36   21   22 1
    37   21   41 1
    38   21   42 1
    39   22   27 ar
    40   22   23 ar
    41   23   24 ar
    42   23   43 1
    43   24   25 ar
    44   24   44 1
    45   25   26 ar
    46   25   45 1
    47   26   27 ar
    48   26   28 1
    49   27   46 1
    50   28   47 1
    51   28   48 1
    52   29   49 1
    53   29   50 1
    54   29   51 1
@<TRIPOS>MOLECULE
CHEMBL300087
   40    42     0     0     0
SMALL
USER_CHARGES

@<TRIPOS>ATOM
      1 C1         -0.0187    1.5258    0.0104 C.3       1 <0>        -0.1521
      2 C2          0.0021   -0.0041    0.0020 C.3       1 <0>         0.0719
      3 O1          0.6709   -0.4649   -1.1737 O.3       1 <0>        -0.3462
      4 C3          0.7758   -1.7977   -1.3346 C.2       1 <0>         0.6598
      5 O2          0.3120   -2.5489   -0.4996 O.2       1 <0>        -0.5134
      6 N1          1.3951   -2.2985   -2.4219 N.am      1 <0>        -0.5354
      7 C4          1.9435   -1.4491   -3.3967 C.ar      1 <0>         0.0983
      8 C5          2.4004   -0.1864   -3.0630 C.ar      1 <0>        -0.0876
      9 C6          2.9276    0.6343   -4.0439 C.ar      1 <0>        -0.1101
     10 C7          2.9972    0.1956   -5.3536 C.ar      1 <0>        -0.0911
     11 C8          2.5462   -1.0666   -5.6926 C.ar      1 <0>        -0.1234
     12 C9          2.0204   -1.8976   -4.7154 C.ar      1 <0>         0.1335
     13 N2          1.5794   -3.1854   -5.0376 N.am      1 <0>        -0.6431
     14 C10         1.2618   -4.0685   -4.0737 C.2       1 <0>         0.5243
     15 O3          0.7652   -5.1330   -4.3758 O.2       1 <0>        -0.4618
     16 C11         1.5216   -3.7499   -2.6191 C.3       1 <0>         0.2806
     17 C12         0.5366   -4.4490   -1.7777 C.1       1 <0>        -0.2224
     18 C13        -0.2490   -5.0065   -1.1067 C.1       1 <0>        -0.0024
     19 C14        -1.2340   -5.7056   -0.2654 C.3       1 <0>        -0.0637
     20 C15        -0.7019   -6.5303    0.9083 C.3       1 <0>        -0.1596
     21 C16        -1.2603   -7.2340   -0.3302 C.3       1 <0>        -0.1523
     22 C17         2.9339   -4.1973   -2.2365 C.3       1 <0>         0.4568
     23 F1          3.1734   -3.8874   -0.8934 F         1 <0>        -0.1565
     24 F2          3.0525   -5.5785   -2.4247 F         1 <0>        -0.1557
     25 F3          3.8670   -3.5351   -3.0414 F         1 <0>        -0.1638
     26 H1          1.0039    1.9031    0.0027 H         1 <0>         0.0690
     27 H2         -0.5459    1.8868   -0.8726 H         1 <0>         0.0686
     28 H3         -0.5289    1.8773    0.9072 H         1 <0>         0.0854
     29 H4          0.5293   -0.3651    0.8851 H         1 <0>         0.0737
     30 H5         -1.0205   -0.3814    0.0098 H         1 <0>         0.0712
     31 H6          2.3453    0.1573   -2.0406 H         1 <0>         0.1509
     32 H7          3.2854    1.6202   -3.7864 H         1 <0>         0.1384
     33 H8          3.4065    0.8423   -6.1157 H         1 <0>         0.1382
     34 H9          2.6028   -1.4043   -6.7169 H         1 <0>         0.1411
     35 H10         1.5011   -3.4451   -5.9689 H         1 <0>         0.4269
     36 H11        -2.1852   -5.1912   -0.1291 H         1 <0>         0.1363
     37 H12         0.3776   -6.5552    1.0575 H         1 <0>         0.0966
     38 H13        -1.3030   -6.5585    1.8171 H         1 <0>         0.1088
     39 H14        -2.2288   -7.7251   -0.2362 H         1 <0>         0.1070
     40 H15        -0.5482   -7.7219   -0.9958 H         1 <0>         0.1034
@<TRIPOS>BOND
     1    1    2 1
     2    1   26 1
     3    1   27 1
     4    1   28 1
     5    2    3 1
     6    2   29 1
     7    2   30 1
     8    3    4 1
     9    4    5 2
    10    4    6 am
    11    6   16 1
    12    6    7 1
    13    7   12 ar
    14    7    8 ar
    15    8    9 ar
    16    8   31 1
    17    9   10 ar
    18    9   32 1
    19   10   11 ar
    20   10   33 1
    21   11   12 ar
    22   11   34 1
    23   12   13 1
    24   13   14 am
    25   13   35 1
    26   14   15 2
    27   14   16 1
    28   16   17 1
    29   16   22 1
    30   17   18 3
    31   18   19 1
    32   19   21 1
    33   19   20 1
    34   19   36 1
    35   20   21 1
    36   20   37 1
    37   20   38 1
    38   21   39 1
    39   21   40 1
    40   22   23 1
    41   22   24 1
    42   22   25 1
@<TRIPOS>MOLECULE
CHEMBL300087__1
   40    42     0     0     0
SMALL
USER_CHARGES

@<TRIPOS>ATOM
      1 C1         -0.0187    1.5258    0.0104 C.3       1 <0>        -0.1520
      2 C2          0.0021   -0.0041    0.0020 C.3       1 <0>         0.0714
      3 O1          0.6709   -0.4649   -1.1737 O.3       1 <0>        -0.3460
      4 C3          0.7758   -1.7977   -1.3346 C.2       1 <0>         0.6602
      5 O2          0.3120   -2.5489   -0.4996 O.2       1 <0>        -0.5136
      6 N1          1.3951   -2.2985   -2.4219 N.am      1 <0>        -0.5351
      7 C4          1.9435   -1.4491   -3.3967 C.ar      1 <0>         0.0989
      8 C5          1.4127   -0.1916   -3.6232 C.ar      1 <0>        -0.0879
      9 C6          1.9774    0.6293   -4.5829 C.ar      1 <0>        -0.1097
     10 C7          3.0692    0.1960   -5.3128 C.ar      1 <0>        -0.0914
     11 C8          3.6016   -1.0610   -5.0940 C.ar      1 <0>        -0.1231
     12 C9          3.0394   -1.8922   -4.1375 C.ar      1 <0>         0.1326
     13 N2          3.5525   -3.1750   -3.9186 N.am      1 <0>        -0.6427
     14 C10         2.8951   -4.0599   -3.1473 C.2       1 <0>         0.5243
     15 O3          3.4178   -5.1191   -2.8713 O.2       1 <0>        -0.4632
     16 C11         1.5216   -3.7499   -2.6191 C.3       1 <0>         0.2806
     17 C12         1.3208   -4.4408   -1.3349 C.1       1 <0>        -0.2228
     18 C13         1.1606   -4.9918   -0.3107 C.1       1 <0>        -0.0026
     19 C14         0.9597   -5.6826    0.9735 C.3       1 <0>        -0.0626
     20 C15         2.1719   -6.3739    1.6010 C.3       1 <0>        -0.1591
     21 C16         1.0531   -7.2098    0.9763 C.3       1 <0>        -0.1584
     22 C17         0.4721   -4.2231   -3.6268 C.3       1 <0>         0.4562
     23 F1          0.6692   -3.5686   -4.8474 F         1 <0>        -0.1639
     24 F2          0.5939   -5.6042   -3.8132 F         1 <0>        -0.1557
     25 F3         -0.8065   -3.9291   -3.1411 F         1 <0>        -0.1565
     26 H1          1.0039    1.9031    0.0027 H         1 <0>         0.0688
     27 H2         -0.5459    1.8868   -0.8726 H         1 <0>         0.0689
     28 H3         -0.5289    1.8773    0.9072 H         1 <0>         0.0854
     29 H4          0.5293   -0.3651    0.8851 H         1 <0>         0.0719
     30 H5         -1.0205   -0.3814    0.0098 H         1 <0>         0.0736
     31 H6          0.5603    0.1476   -3.0532 H         1 <0>         0.1514
     32 H7          1.5649    1.6112   -4.7622 H         1 <0>         0.1385
     33 H8          3.5080    0.8428   -6.0581 H         1 <0>         0.1383
     34 H9          4.4539   -1.3949   -5.6673 H         1 <0>         0.1411
     35 H10         4.3936   -3.4302   -4.3287 H         1 <0>         0.4269
     36 H11         0.2382   -5.2213    1.6477 H         1 <0>         0.1370
     37 H12         3.1181   -6.3170    1.0629 H         1 <0>         0.1001
     38 H13         2.2481   -6.3672    2.6883 H         1 <0>         0.1088
     39 H14         0.3931   -7.7531    1.6526 H         1 <0>         0.1096
     40 H15         1.2632   -7.7029    0.0272 H         1 <0>         0.1018
@<TRIPOS>BOND
     1    1    2 1
     2    1   26 1
     3    1   27 1
     4    1   28 1
     5    2    3 1
     6    2   29 1
     7    2   30 1
     8    3    4 1
     9    4    5 2
    10    4    6 am
    11    6   16 1
    12    6    7 1
    13    7   12 ar
    14    7    8 ar
    15    8    9 ar
    16    8   31 1
    17    9   10 ar
    18    9   32 1
    19   10   11 ar
    20   10   33 1
    21   11   12 ar
    22   11   34 1
    23   12   13 1
    24   13   14 am
    25   13   35 1
    26   14   15 2
    27   14   16 1
    28   16   17 1
    29   16   22 1
    30   17   18 3
    31   18   19 1
    32   19   21 1
    33   19   20 1
    34   19   36 1
    35   20   21 1
    36   20   37 1
    37   20   38 1
    38   21   39 1
    39   21   40 1
    40   22   23 1
    41   22   24 1
    42   22   25 1
@<TRIPOS>MOLECULE
CHEMBL101293
   50    53     0     0     0
SMALL
USER_CHARGES

@<TRIPOS>ATOM
      1 C1          0.7265    2.5960    1.3534 C.3       1 <0>        -0.1705
      2 C2          0.1538    1.2983    0.7799 C.3       1 <0>         0.1359
      3 N1          0.7483    0.1534    1.4742 N.pl3     1 <0>        -0.5757
      4 C3          1.9243   -0.4259    0.9989 C.ar      1 <0>         0.3846
      5 C4          3.0719   -0.4541    1.7876 C.ar      1 <0>         0.0947
      6 C5          4.2078   -1.0927    1.3003 C.ar      1 <0>        -0.0727
      7 C6          4.1643   -1.6509    0.0307 C.ar      1 <0>        -0.1377
      8 C7          3.0014   -1.5565   -0.7085 C.ar      1 <0>         0.1847
      9 N2          1.9324   -0.9590   -0.2152 N.ar      1 <0>        -0.4690
     10 Cl1         2.9446   -2.2321   -2.3066 Cl        1 <0>        -0.0172
     11 N3          3.1297    0.1835    3.0249 N.am      1 <0>        -0.5360
     12 C8          2.1763    0.2238    3.9437 C.2       1 <0>         0.5780
     13 O1          2.4230    0.8203    4.9740 O.2       1 <0>        -0.5190
     14 C9          0.8489   -0.3882    3.8257 C.ar      1 <0>        -0.1724
     15 C10         0.1506   -0.3620    2.6141 C.ar      1 <0>         0.3859
     16 N4         -1.0810   -0.8459    2.5479 N.ar      1 <0>        -0.4707
     17 C11        -1.6683   -1.4043    3.5878 C.ar      1 <0>         0.1218
     18 C12        -1.0158   -1.5095    4.8094 C.ar      1 <0>         0.0867
     19 C13         0.2575   -0.9980    4.9371 C.ar      1 <0>        -0.0462
     20 N5         -1.6437   -2.1312    5.8967 N.am      1 <0>        -0.5438
     21 C14        -1.0178   -2.0983    7.2209 C.3       1 <0>         0.0462
     22 C15        -2.8235   -2.7596    5.7244 C.2       1 <0>         0.5645
     23 O2         -3.2895   -2.8824    4.6083 O.2       1 <0>        -0.5067
     24 C16        -3.5509   -3.2993    6.8926 C.ar      1 <0>        -0.1403
     25 C17        -3.2903   -2.8034    8.1711 C.ar      1 <0>        -0.1076
     26 C18        -3.9726   -3.3116    9.2570 C.ar      1 <0>        -0.1279
     27 C19        -4.9132   -4.3109    9.0811 C.ar      1 <0>        -0.0871
     28 C20        -5.1764   -4.8069    7.8165 C.ar      1 <0>        -0.1265
     29 C21        -4.5056   -4.3032    6.7213 C.ar      1 <0>        -0.0543
     30 C22         4.3764    0.8838    3.3434 C.3       1 <0>         0.0643
     31 H1          1.8076    2.6085    1.2151 H         1 <0>         0.0537
     32 H2          0.2842    3.4479    0.8368 H         1 <0>         0.0733
     33 H3          0.4956    2.6562    2.4170 H         1 <0>         0.0546
     34 H4         -0.9273    1.2858    0.9183 H         1 <0>         0.0860
     35 H5          0.3847    1.2381   -0.2837 H         1 <0>         0.0846
     36 H6          5.1054   -1.1526    1.8980 H         1 <0>         0.1591
     37 H7          5.0301   -2.1531   -0.3750 H         1 <0>         0.1584
     38 H8         -2.6737   -1.7860    3.4883 H         1 <0>         0.2135
     39 H9          0.7835   -1.0627    5.8782 H         1 <0>         0.1524
     40 H10        -1.2710   -1.1626    7.7193 H         1 <0>         0.0805
     41 H11        -1.3812   -2.9365    7.8154 H         1 <0>         0.1068
     42 H12         0.0644   -2.1713    7.1132 H         1 <0>         0.0818
     43 H13        -2.5558   -2.0239    8.3099 H         1 <0>         0.1500
     44 H14        -3.7719   -2.9288   10.2468 H         1 <0>         0.1324
     45 H15        -5.4441   -4.7058    9.9346 H         1 <0>         0.1301
     46 H16        -5.9118   -5.5870    7.6860 H         1 <0>         0.1333
     47 H17        -4.7151   -4.6881    5.7342 H         1 <0>         0.1374
     48 H18         4.3122    1.9155    2.9976 H         1 <0>         0.0698
     49 H19         4.5350    0.8712    4.4217 H         1 <0>         0.0954
     50 H20         5.2097    0.3858    2.8478 H         1 <0>         0.0812
@<TRIPOS>BOND
     1    1    2 1
     2    1   31 1
     3    1   32 1
     4    1   33 1
     5    2    3 1
     6    2   34 1
     7    2   35 1
     8    3   15 1
     9    3    4 1
    10    4    9 ar
    11    4    5 ar
    12    5    6 ar
    13    5   11 1
    14    6    7 ar
    15    6   36 1
    16    7    8 ar
    17    7   37 1
    18    8    9 ar
    19    8   10 1
    20   11   12 am
    21   11   30 1
    22   12   13 2
    23   12   14 1
    24   14   19 ar
    25   14   15 ar
    26   15   16 ar
    27   16   17 ar
    28   17   18 ar
    29   17   38 1
    30   18   19 ar
    31   18   20 1
    32   19   39 1
    33   20   21 1
    34   20   22 am
    35   21   40 1
    36   21   41 1
    37   21   42 1
    38   22   23 2
    39   22   24 1
    40   24   29 ar
    41   24   25 ar
    42   25   26 ar
    43   25   43 1
    44   26   27 ar
    45   26   44 1
    46   27   28 ar
    47   27   45 1
    48   28   29 ar
    49   28   46 1
    50   29   47 1
    51   30   48 1
    52   30   49 1
    53   30   50 1
@<TRIPOS>MOLECULE
CHEMBL141
   26    27     0     0     0
SMALL
USER_CHARGES

@<TRIPOS>ATOM
      1 C1         -0.0170    1.4058    0.0098 C.2       1 <0>        -0.3117
      2 C2          1.1585    2.0778    0.0022 C.2       1 <0>         0.2100
      3 N1          2.3268    1.3767   -0.0128 N.am      1 <0>        -0.5321
      4 C3          2.3121    0.0311   -0.0199 C.2       1 <0>         0.6626
      5 O1          3.3676   -0.5804   -0.0328 O.2       1 <0>        -0.5390
      6 N2          1.1640   -0.6440   -0.0125 N.2       1 <0>        -0.6123
      7 C4          0.0021   -0.0041    0.0020 C.2       1 <0>         0.5069
      8 N3         -1.1774   -0.7119    0.0095 N.pl3     1 <0>        -0.8126
      9 C5          3.6056    2.0915   -0.0216 C.3       1 <0>         0.3029
     10 H1          4.1614    1.8359   -0.9238 H         1 <0>         0.1124
     11 C6          4.4374    1.6928    1.2367 C.3       1 <0>        -0.0817
     12 S1          5.5741    3.1480    1.2841 S.3       1 <0>        -0.2865
     13 C7          4.5621    4.2850    0.2459 C.3       1 <0>         0.1506
     14 H2          5.0706    4.5098   -0.6917 H         1 <0>         0.1260
     15 O2          3.3674    3.5045    0.0129 O.3       1 <0>        -0.3750
     16 C8          4.2354    5.5713    1.0071 C.3       1 <0>         0.0873
     17 O3          3.5294    5.2485    2.2069 O.3       1 <0>        -0.5549
     18 H3         -0.9547    1.9414    0.0261 H         1 <0>         0.1574
     19 H4          1.1700    3.1577    0.0075 H         1 <0>         0.1815
     20 H5         -2.0255   -0.2412    0.0201 H         1 <0>         0.4163
     21 H6         -1.1611   -1.6818    0.0041 H         1 <0>         0.4142
     22 H7          3.8142    1.6414    2.1296 H         1 <0>         0.1061
     23 H8          4.9831    0.7626    1.0785 H         1 <0>         0.1406
     24 H9          5.1606    6.0899    1.2583 H         1 <0>         0.0760
     25 H10         3.6158    6.2154    0.3831 H         1 <0>         0.0705
     26 H11         3.2893    6.0180    2.7411 H         1 <0>         0.3846
@<TRIPOS>BOND
     1    1    7 1
     2    1    2 2
     3    1   18 1
     4    2    3 1
     5    2   19 1
     6    3    4 am
     7    3    9 1
     8    4    5 2
     9    4    6 1
    10    6    7 2
    11    7    8 1
    12    8   20 1
    13    8   21 1
    14    9   10 1
    15    9   15 1
    16    9   11 1
    17   11   12 1
    18   11   22 1
    19   11   23 1
    20   12   13 1
    21   13   14 1
    22   13   15 1
    23   13   16 1
    24   16   17 1
    25   16   24 1
    26   16   25 1
    27   17   26 1
@<TRIPOS>MOLECULE
CHEMBL340381
   30    31     0     0     0
SMALL
USER_CHARGES

@<TRIPOS>ATOM
      1 C1         -0.0167    1.3792    0.0096 C.ar      1 <0>        -0.1161
      2 C2          1.1683    2.0931    0.0021 C.ar      1 <0>        -0.1202
      3 C3          2.3774    1.4286   -0.0134 C.ar      1 <0>        -0.1044
      4 C4          2.4032    0.0335   -0.0212 C.ar      1 <0>        -0.0635
      5 C5          1.2045   -0.6806   -0.0131 C.ar      1 <0>        -0.1106
      6 C6          0.0021   -0.0041    0.0020 C.ar      1 <0>        -0.1192
      7 C7          3.6950   -0.6848   -0.0384 C.2       1 <0>        -0.0817
      8 C8          3.7162   -2.0103   -0.0457 C.2       1 <0>        -0.1443
      9 C9          5.0332   -2.7426   -0.0633 C.3       1 <0>        -0.0764
     10 S1          5.2263   -3.6765    1.4798 S.3       1 <0>         0.0210
     11 C10         6.7921   -4.4660    1.3072 C.ar      1 <0>         0.3607
     12 N1          7.2343   -5.2445    2.2843 N.ar      1 <0>        -0.5588
     13 C11         8.4111   -5.8546    2.1844 C.ar      1 <0>         0.4684
     14 C12         9.1778   -5.6644    1.0335 C.ar      1 <0>        -0.2872
     15 C13         8.6800   -4.8442    0.0372 C.ar      1 <0>         0.2656
     16 N2          7.4956   -4.2709    0.2011 N.ar      1 <0>        -0.5650
     17 Cl1         9.5927   -4.5737   -1.4145 Cl        1 <0>        -0.0093
     18 N3          8.8702   -6.6674    3.2082 N.pl3     1 <0>        -0.8254
     19 H1         -0.9604    1.9041    0.0260 H         1 <0>         0.1230
     20 H2          1.1469    3.1729    0.0082 H         1 <0>         0.1245
     21 H3          3.3018    1.9870   -0.0200 H         1 <0>         0.1253
     22 H4          1.2178   -1.7605   -0.0194 H         1 <0>         0.1256
     23 H5         -0.9265   -0.5556    0.0079 H         1 <0>         0.1244
     24 H6          4.6214   -0.1298   -0.0450 H         1 <0>         0.1242
     25 H7          2.7898   -2.5653   -0.0392 H         1 <0>         0.1265
     26 H8          5.0556   -3.4298   -0.9091 H         1 <0>         0.1074
     27 H9          5.8473   -2.0240   -0.1574 H         1 <0>         0.1007
     28 H10        10.1380   -6.1464    0.9236 H         1 <0>         0.1545
     29 H11         8.3320   -6.7945    4.0051 H         1 <0>         0.4133
     30 H12         9.7300   -7.1093    3.1281 H         1 <0>         0.4167
@<TRIPOS>BOND
     1    1    6 ar
     2    1    2 ar
     3    1   19 1
     4    2    3 ar
     5    2   20 1
     6    3    4 ar
     7    3   21 1
     8    4    5 ar
     9    4    7 1
    10    5    6 ar
    11    5   22 1
    12    6   23 1
    13    7    8 2
    14    7   24 1
    15    8    9 1
    16    8   25 1
    17    9   10 1
    18    9   26 1
    19    9   27 1
    20   10   11 1
    21   11   16 ar
    22   11   12 ar
    23   12   13 ar
    24   13   14 ar
    25   13   18 1
    26   14   15 ar
    27   14   28 1
    28   15   16 ar
    29   15   17 1
    30   18   29 1
    31   18   30 1
@<TRIPOS>MOLECULE
CHEMBL81227
   39    42     0     0     0
SMALL
USER_CHARGES

@<TRIPOS>ATOM
      1 C1         -0.0166    1.3754    0.0096 C.ar      1 <0>        -0.0874
      2 C2          1.1679    2.0942    0.0022 C.ar      1 <0>        -0.1076
      3 C3          2.3823    1.4404   -0.0134 C.ar      1 <0>        -0.0688
      4 C4          2.4233    0.0455   -0.0213 C.ar      1 <0>        -0.0067
      5 C5          1.2188   -0.6848   -0.0133 C.ar      1 <0>         0.0603
      6 C6          0.0021   -0.0041    0.0020 C.ar      1 <0>        -0.0930
      7 C7          1.2438   -2.1165   -0.0217 C.1       1 <0>        -0.1130
      8 C8          1.2643   -3.2903   -0.0286 C.1       1 <0>        -0.1477
      9 C9          1.2900   -4.7621   -0.0373 C.3       1 <0>         0.3656
     10 C10        -0.1392   -5.2533   -0.0256 C.ar      1 <0>        -0.1164
     11 C11        -1.0270   -4.8933   -1.0131 C.ar      1 <0>        -0.0476
     12 C12        -2.3298   -5.3633   -0.9700 C.ar      1 <0>        -0.0621
     13 C13        -2.7333   -6.1907    0.0635 C.ar      1 <0>        -0.0613
     14 C14        -1.8431   -6.5524    1.0557 C.ar      1 <0>        -0.1438
     15 C15        -0.5364   -6.0845    1.0160 C.ar      1 <0>         0.1858
     16 N1          0.3781   -6.4397    2.0089 N.am      1 <0>        -0.6594
     17 C16         1.6481   -6.0150    2.0152 C.2       1 <0>         0.7137
     18 O1          2.3753   -6.3757    2.9204 O.2       1 <0>        -0.5659
     19 N2          2.1568   -5.2077    1.0669 N.am      1 <0>        -0.7097
     20 Cl1        -3.4561   -4.9138   -2.2121 Cl        1 <0>        -0.0574
     21 C17         1.9317   -5.2109   -1.3517 C.3       1 <0>        -0.1731
     22 C18         3.0841   -6.2140   -1.2688 C.3       1 <0>        -0.1626
     23 C19         3.3651   -4.7541   -1.6302 C.3       1 <0>        -0.1680
     24 C20         3.6812   -0.6386   -0.0380 C.1       1 <0>         0.2470
     25 N3          4.6791   -1.1814   -0.0512 N.1       1 <0>        -0.4003
     26 H1         -0.9612    1.8988    0.0260 H         1 <0>         0.1391
     27 H2          1.1402    3.1738    0.0082 H         1 <0>         0.1400
     28 H3          3.3012    2.0079   -0.0199 H         1 <0>         0.1402
     29 H4         -0.9258   -0.5567    0.0079 H         1 <0>         0.1391
     30 H5         -0.7100   -4.2470   -1.8182 H         1 <0>         0.1441
     31 H6         -3.7495   -6.5551    0.0945 H         1 <0>         0.1450
     32 H7         -2.1627   -7.1977    1.8606 H         1 <0>         0.1453
     33 H8          0.0804   -7.0205    2.7265 H         1 <0>         0.4288
     34 H9          3.0831   -4.9231    1.1096 H         1 <0>         0.4315
     35 H10         1.2547   -5.2908   -2.2022 H         1 <0>         0.1251
     36 H11         3.3850   -6.5541   -0.2780 H         1 <0>         0.1008
     37 H12         3.1653   -6.9541   -2.0649 H         1 <0>         0.1032
     38 H13         3.6312   -4.5337   -2.6640 H         1 <0>         0.1033
     39 H14         3.8509   -4.1337   -0.8771 H         1 <0>         0.0936
@<TRIPOS>BOND
     1    1    6 ar
     2    1    2 ar
     3    1   26 1
     4    2    3 ar
     5    2   27 1
     6    3    4 ar
     7    3   28 1
     8    4    5 ar
     9    4   24 1
    10    5    6 ar
    11    5    7 1
    12    6   29 1
    13    7    8 3
    14    8    9 1
    15    9   19 1
    16    9   10 1
    17    9   21 1
    18   10   15 ar
    19   10   11 ar
    20   11   12 ar
    21   11   30 1
    22   12   13 ar
    23   12   20 1
    24   13   14 ar
    25   13   31 1
    26   14   15 ar
    27   14   32 1
    28   15   16 1
    29   16   17 am
    30   16   33 1
    31   17   18 2
    32   17   19 am
    33   19   34 1
    34   21   23 1
    35   21   22 1
    36   21   35 1
    37   22   23 1
    38   22   36 1
    39   22   37 1
    40   23   38 1
    41   23   39 1
    42   24   25 3
@<TRIPOS>MOLECULE
CHEMBL81227__1
   39    42     0     0     0
SMALL
USER_CHARGES

@<TRIPOS>ATOM
      1 C1         -0.0166    1.3754    0.0096 C.ar      1 <0>        -0.0873
      2 C2          1.1679    2.0942    0.0022 C.ar      1 <0>        -0.1070
      3 C3          2.3823    1.4404   -0.0134 C.ar      1 <0>        -0.0687
      4 C4          2.4233    0.0455   -0.0213 C.ar      1 <0>        -0.0063
      5 C5          1.2188   -0.6848   -0.0133 C.ar      1 <0>         0.0589
      6 C6          0.0021   -0.0041    0.0020 C.ar      1 <0>        -0.0925
      7 C7          1.2438   -2.1165   -0.0217 C.1       1 <0>        -0.1151
      8 C8          1.2643   -3.2903   -0.0286 C.1       1 <0>        -0.1474
      9 C9          1.2900   -4.7621   -0.0373 C.3       1 <0>         0.3644
     10 C10        -0.1392   -5.2533   -0.0256 C.ar      1 <0>        -0.1192
     11 C11        -1.0070   -4.9040    0.9833 C.ar      1 <0>        -0.0419
     12 C12        -2.3107   -5.3729    0.9608 C.ar      1 <0>        -0.0637
     13 C13        -2.7349   -6.1893   -0.0731 C.ar      1 <0>        -0.0607
     14 C14        -1.8648   -6.5403   -1.0867 C.ar      1 <0>        -0.1453
     15 C15        -0.5575   -6.0727   -1.0683 C.ar      1 <0>         0.1854
     16 N1          0.3366   -6.4164   -2.0836 N.am      1 <0>        -0.6603
     17 C16         1.6060   -5.9907   -2.1113 C.2       1 <0>         0.7126
     18 O1          2.3142   -6.3397   -3.0359 O.2       1 <0>        -0.5664
     19 N2          2.1342   -5.1950   -1.1638 N.am      1 <0>        -0.7067
     20 Cl1        -3.4119   -4.9368    2.2299 Cl        1 <0>        -0.0576
     21 C17         1.9582   -5.2258    1.2586 C.3       1 <0>        -0.1709
     22 C18         2.1426   -4.1891    2.3686 C.3       1 <0>        -0.1664
     23 C19         3.3524   -4.6780    1.5698 C.3       1 <0>        -0.1667
     24 C20         3.6812   -0.6386   -0.0380 C.1       1 <0>         0.2457
     25 N3          4.6791   -1.1814   -0.0512 N.1       1 <0>        -0.3988
     26 H1         -0.9612    1.8988    0.0260 H         1 <0>         0.1393
     27 H2          1.1402    3.1738    0.0082 H         1 <0>         0.1402
     28 H3          3.3012    2.0079   -0.0199 H         1 <0>         0.1404
     29 H4         -0.9258   -0.5567    0.0079 H         1 <0>         0.1392
     30 H5         -0.6735   -4.2673    1.7894 H         1 <0>         0.1445
     31 H6         -3.7516   -6.5535   -0.0877 H         1 <0>         0.1448
     32 H7         -2.2003   -7.1776   -1.8915 H         1 <0>         0.1451
     33 H8          0.0243   -6.9890   -2.8015 H         1 <0>         0.4286
     34 H9          3.0595   -4.9097   -1.2220 H         1 <0>         0.4319
     35 H10         1.7419   -6.2513    1.5582 H         1 <0>         0.1237
     36 H11         1.7879   -3.1767    2.1757 H         1 <0>         0.1009
     37 H12         2.0475   -4.5324    3.3988 H         1 <0>         0.1048
     38 H13         4.0533   -5.3430    2.0745 H         1 <0>         0.1045
     39 H14         3.7937   -3.9873    0.8514 H         1 <0>         0.0940
@<TRIPOS>BOND
     1    1    6 ar
     2    1    2 ar
     3    1   26 1
     4    2    3 ar
     5    2   27 1
     6    3    4 ar
     7    3   28 1
     8    4    5 ar
     9    4   24 1
    10    5    6 ar
    11    5    7 1
    12    6   29 1
    13    7    8 3
    14    8    9 1
    15    9   19 1
    16    9   10 1
    17    9   21 1
    18   10   15 ar
    19   10   11 ar
    20   11   12 ar
    21   11   30 1
    22   12   13 ar
    23   12   20 1
    24   13   14 ar
    25   13   31 1
    26   14   15 ar
    27   14   32 1
    28   15   16 1
    29   16   17 am
    30   16   33 1
    31   17   18 2
    32   17   19 am
    33   19   34 1
    34   21   23 1
    35   21   22 1
    36   21   35 1
    37   22   23 1
    38   22   36 1
    39   22   37 1
    40   23   38 1
    41   23   39 1
    42   24   25 3
@<TRIPOS>MOLECULE
CHEMBL422659
   41    44     0     0     0
SMALL
USER_CHARGES

@<TRIPOS>ATOM
      1 C1         -0.0187    1.5258    0.0104 C.3       1 <0>        -0.1711
      2 C2          0.0021   -0.0041    0.0020 C.3       1 <0>         0.1367
      3 N1          0.6878   -0.4765   -1.2033 N.pl3     1 <0>        -0.5775
      4 C3         -0.0234   -0.7079   -2.3686 C.ar      1 <0>         0.4138
      5 C4          0.3078   -0.0052   -3.5388 C.ar      1 <0>        -0.2002
      6 C5         -0.3681   -0.3150   -4.7242 C.ar      1 <0>        -0.0009
      7 C6         -1.3671   -1.2724   -4.6820 C.ar      1 <0>        -0.1897
      8 C7         -1.6677   -1.8890   -3.4813 C.ar      1 <0>         0.1510
      9 N2         -1.0034   -1.5986   -2.3796 N.ar      1 <0>        -0.4989
     10 C8          1.3101    1.0636   -3.5233 C.2       1 <0>         0.5767
     11 O1          1.0836    2.0455   -4.2036 O.2       1 <0>        -0.5226
     12 N3          2.4412    1.0551   -2.8333 N.am      1 <0>        -0.5366
     13 C9          2.9142    0.0256   -2.0191 C.ar      1 <0>         0.0758
     14 C10         2.0650   -0.6930   -1.1922 C.ar      1 <0>         0.3982
     15 N4          2.5580   -1.6180   -0.3780 N.ar      1 <0>        -0.4977
     16 C11         3.8480   -1.9116   -0.3528 C.ar      1 <0>         0.3689
     17 C12         4.7412   -1.2557   -1.1865 C.ar      1 <0>        -0.1692
     18 C13         4.2723   -0.2784   -2.0290 C.ar      1 <0>        -0.0517
     19 N5          4.3162   -2.8949    0.5254 N.pl3     1 <0>        -0.3968
     20 C14         5.6171   -3.2906    0.6580 C.2       1 <0>        -0.0183
     21 C15         5.6702   -4.2540    1.5998 C.2       1 <0>        -0.1756
     22 C16         4.3566   -4.4624    2.0668 C.2       1 <0>        -0.1936
     23 C17         3.5495   -3.6149    1.3972 C.2       1 <0>         0.0129
     24 C18         3.2824    2.2501   -2.9363 C.3       1 <0>         0.0580
     25 H1          1.0039    1.9031    0.0027 H         1 <0>         0.0543
     26 H2         -0.5459    1.8868   -0.8726 H         1 <0>         0.0553
     27 H3         -0.5289    1.8773    0.9072 H         1 <0>         0.0737
     28 H4          0.5293   -0.3651    0.8851 H         1 <0>         0.0831
     29 H5         -1.0205   -0.3814    0.0098 H         1 <0>         0.0859
     30 H6         -0.1166    0.1812   -5.6499 H         1 <0>         0.1491
     31 H7         -1.9070   -1.5358   -5.5795 H         1 <0>         0.1499
     32 H8         -2.4605   -2.6215   -3.4452 H         1 <0>         0.1689
     33 H9          5.7902   -1.5124   -1.1743 H         1 <0>         0.1540
     34 H10         4.9500    0.2489   -2.6841 H         1 <0>         0.1568
     35 H11         6.4577   -2.8993    0.1042 H         1 <0>         0.1691
     36 H12         6.5569   -4.7716    1.9347 H         1 <0>         0.1458
     37 H13         4.0529   -5.1687    2.8253 H         1 <0>         0.1441
     38 H14         2.4812   -3.5231    1.5260 H         1 <0>         0.1690
     39 H15         2.8056    2.9742   -3.5968 H         1 <0>         0.1074
     40 H16         3.4113    2.6900   -1.9474 H         1 <0>         0.0707
     41 H17         4.2563    1.9750   -3.3413 H         1 <0>         0.0714
@<TRIPOS>BOND
     1    1    2 1
     2    1   25 1
     3    1   26 1
     4    1   27 1
     5    2    3 1
     6    2   28 1
     7    2   29 1
     8    3   14 1
     9    3    4 1
    10    4    9 ar
    11    4    5 ar
    12    5    6 ar
    13    5   10 1
    14    6    7 ar
    15    6   30 1
    16    7    8 ar
    17    7   31 1
    18    8    9 ar
    19    8   32 1
    20   10   11 2
    21   10   12 am
    22   12   13 1
    23   12   24 1
    24   13   18 ar
    25   13   14 ar
    26   14   15 ar
    27   15   16 ar
    28   16   17 ar
    29   16   19 1
    30   17   18 ar
    31   17   33 1
    32   18   34 1
    33   19   23 1
    34   19   20 1
    35   20   21 2
    36   20   35 1
    37   21   22 1
    38   21   36 1
    39   22   23 2
    40   22   37 1
    41   23   38 1
    42   24   39 1
    43   24   40 1
    44   24   41 1
@<TRIPOS>MOLECULE
CHEMBL81441
   47    51     0     0     0
SMALL
USER_CHARGES

@<TRIPOS>ATOM
      1 C1         -0.0187    1.5258    0.0104 C.3       1 <0>        -0.1745
      2 C2          0.0021   -0.0041    0.0020 C.3       1 <0>         0.1397
      3 N1          0.7106   -0.4894    1.1889 N.pl3     1 <0>        -0.5792
      4 C3          2.0788   -0.6987    1.1510 C.ar      1 <0>         0.4101
      5 C4          2.9157   -0.0004    2.0368 C.ar      1 <0>        -0.2003
      6 C5          4.2850   -0.2889    2.0381 C.ar      1 <0>         0.0004
      7 C6          4.7626   -1.2210    1.1329 C.ar      1 <0>        -0.1856
      8 C7          3.8826   -1.8342    0.2601 C.ar      1 <0>         0.1508
      9 N2          2.5920   -1.5645    0.2902 N.ar      1 <0>        -0.5006
     10 C8          2.3845    1.0428    2.9182 C.2       1 <0>         0.5750
     11 O1          3.0715    2.0326    3.0817 O.2       1 <0>        -0.5132
     12 N3          1.2220    1.0034    3.5524 N.am      1 <0>        -0.5415
     13 C9          0.2968   -0.0395    3.5348 C.ar      1 <0>         0.1072
     14 C10         0.0161   -0.7404    2.3714 C.ar      1 <0>         0.3732
     15 N4         -0.9202   -1.6797    2.3716 N.ar      1 <0>        -0.4743
     16 C11        -1.5846   -2.0068    3.4737 C.ar      1 <0>         0.1948
     17 C12        -1.3162   -1.3664    4.6807 C.ar      1 <0>        -0.1409
     18 C13        -0.3685   -0.3760    4.7111 C.ar      1 <0>        -0.0738
     19 C14        -2.6213   -3.0627    3.4187 C.2       1 <0>        -0.1164
     20 C15        -3.3863   -3.5035    4.4511 C.2       1 <0>         0.1525
     21 N5         -4.2278   -4.4835    4.0165 N.pl3     1 <0>        -0.5523
     22 H1         -4.8701   -4.9506    4.5734 H         1 <0>         0.4427
     23 C16        -4.0353   -4.7143    2.6731 C.ar      1 <0>         0.0555
     24 C17        -3.0268   -3.8323    2.2369 C.ar      1 <0>         0.0082
     25 C18        -2.6438   -3.8614    0.8952 C.ar      1 <0>        -0.0485
     26 C19        -3.2646   -4.7428    0.0537 C.ar      1 <0>         0.0633
     27 N6         -4.2113   -5.5569    0.4892 N.ar      1 <0>        -0.4308
     28 C20        -4.6053   -5.5775    1.7465 C.ar      1 <0>         0.1559
     29 C21         0.8721    2.1779    4.3552 C.3       1 <0>         0.0560
     30 H2          1.0039    1.9031    0.0027 H         1 <0>         0.0570
     31 H3         -0.5459    1.8868   -0.8726 H         1 <0>         0.0742
     32 H4         -0.5289    1.8773    0.9072 H         1 <0>         0.0544
     33 H5         -1.0205   -0.3814    0.0098 H         1 <0>         0.0795
     34 H6          0.5123   -0.3556   -0.8948 H         1 <0>         0.0860
     35 H7          4.9532    0.2042    2.7286 H         1 <0>         0.1504
     36 H8          5.8139   -1.4671    1.1084 H         1 <0>         0.1518
     37 H9          4.2590   -2.5463   -0.4593 H         1 <0>         0.1699
     38 H10        -1.8462   -1.6471    5.5789 H         1 <0>         0.1485
     39 H11        -0.1464    0.1373    5.6350 H         1 <0>         0.1541
     40 H12        -3.3350   -3.1331    5.4643 H         1 <0>         0.2087
     41 H13        -1.8724   -3.2005    0.5285 H         1 <0>         0.1884
     42 H14        -2.9765   -4.7742   -0.9867 H         1 <0>         0.2073
     43 H15        -5.3833   -6.2601    2.0550 H         1 <0>         0.2079
     44 H16         1.6710    2.9162    4.2863 H         1 <0>         0.1094
     45 H17        -0.0557    2.6105    3.9810 H         1 <0>         0.0720
     46 H18         0.7407    1.8807    5.3957 H         1 <0>         0.0730
     47 H19        -4.6274   -6.1668   -0.1398 H         1 <0>         0.4541
@<TRIPOS>BOND
     1    1    2 1
     2    1   30 1
     3    1   31 1
     4    1   32 1
     5    2    3 1
     6    2   33 1
     7    2   34 1
     8    3   14 1
     9    3    4 1
    10    4    9 ar
    11    4    5 ar
    12    5    6 ar
    13    5   10 1
    14    6    7 ar
    15    6   35 1
    16    7    8 ar
    17    7   36 1
    18    8    9 ar
    19    8   37 1
    20   10   11 2
    21   10   12 am
    22   12   13 1
    23   12   29 1
    24   13   18 ar
    25   13   14 ar
    26   14   15 ar
    27   15   16 ar
    28   16   17 ar
    29   16   19 1
    30   17   18 ar
    31   17   38 1
    32   18   39 1
    33   19   24 1
    34   19   20 2
    35   20   21 1
    36   20   40 1
    37   21   22 1
    38   21   23 1
    39   23   28 ar
    40   23   24 ar
    41   24   25 ar
    42   25   26 ar
    43   25   41 1
    44   26   27 ar
    45   26   42 1
    46   27   28 ar
    47   27   47 1
    48   28   43 1
    49   29   44 1
    50   29   45 1
    51   29   46 1
@<TRIPOS>MOLECULE
CHEMBL81441__1
   46    50     0     0     0
SMALL
USER_CHARGES

@<TRIPOS>ATOM
      1 C1         -0.0187    1.5258    0.0104 C.3       1 <0>        -0.1710
      2 C2          0.0021   -0.0041    0.0020 C.3       1 <0>         0.1378
      3 N1          0.7106   -0.4894    1.1889 N.pl3     1 <0>        -0.5786
      4 C3          2.0788   -0.6987    1.1510 C.ar      1 <0>         0.4171
      5 C4          2.9157   -0.0004    2.0368 C.ar      1 <0>        -0.2013
      6 C5          4.2850   -0.2889    2.0381 C.ar      1 <0>        -0.0016
      7 C6          4.7626   -1.2210    1.1329 C.ar      1 <0>        -0.1924
      8 C7          3.8826   -1.8342    0.2601 C.ar      1 <0>         0.1506
      9 N2          2.5920   -1.5645    0.2902 N.ar      1 <0>        -0.4995
     10 C8          2.3845    1.0428    2.9182 C.2       1 <0>         0.5764
     11 O1          3.0715    2.0326    3.0817 O.2       1 <0>        -0.5267
     12 N3          1.2220    1.0034    3.5524 N.am      1 <0>        -0.5368
     13 C9          0.2968   -0.0395    3.5348 C.ar      1 <0>         0.0796
     14 C10         0.0161   -0.7404    2.3714 C.ar      1 <0>         0.3725
     15 N4         -0.9202   -1.6797    2.3716 N.ar      1 <0>        -0.4718
     16 C11        -1.5846   -2.0068    3.4737 C.ar      1 <0>         0.2291
     17 C12        -1.3162   -1.3664    4.6807 C.ar      1 <0>        -0.1558
     18 C13        -0.3685   -0.3760    4.7111 C.ar      1 <0>        -0.0728
     19 C14        -2.6213   -3.0627    3.4187 C.2       1 <0>        -0.1443
     20 C15        -3.3863   -3.5035    4.4511 C.2       1 <0>         0.1069
     21 N5         -4.2278   -4.4835    4.0165 N.pl3     1 <0>        -0.5721
     22 H1         -4.8701   -4.9506    4.5734 H         1 <0>         0.4249
     23 C16        -4.0353   -4.7143    2.6731 C.ar      1 <0>         0.0296
     24 C17        -3.0268   -3.8323    2.2369 C.ar      1 <0>        -0.0425
     25 C18        -2.6438   -3.8614    0.8952 C.ar      1 <0>        -0.1055
     26 C19        -3.2646   -4.7428    0.0537 C.ar      1 <0>         0.0562
     27 N6         -4.2113   -5.5569    0.4892 N.ar      1 <0>        -0.4655
     28 C20        -4.6053   -5.5775    1.7465 C.ar      1 <0>         0.1128
     29 C21         0.8721    2.1779    4.3552 C.3       1 <0>         0.0591
     30 H2          1.0039    1.9031    0.0027 H         1 <0>         0.0539
     31 H3         -0.5459    1.8868   -0.8726 H         1 <0>         0.0720
     32 H4         -0.5289    1.8773    0.9072 H         1 <0>         0.0539
     33 H5         -1.0205   -0.3814    0.0098 H         1 <0>         0.0833
     34 H6          0.5123   -0.3556   -0.8948 H         1 <0>         0.0839
     35 H7          4.9532    0.2042    2.7286 H         1 <0>         0.1475
     36 H8          5.8139   -1.4671    1.1084 H         1 <0>         0.1484
     37 H9          4.2590   -2.5463   -0.4593 H         1 <0>         0.1676
     38 H10        -1.8462   -1.6471    5.5789 H         1 <0>         0.1448
     39 H11        -0.1464    0.1373    5.6350 H         1 <0>         0.1470
     40 H12        -3.3350   -3.1331    5.4643 H         1 <0>         0.1834
     41 H13        -1.8724   -3.2005    0.5285 H         1 <0>         0.1439
     42 H14        -2.9765   -4.7742   -0.9867 H         1 <0>         0.1562
     43 H15        -5.3833   -6.2601    2.0550 H         1 <0>         0.1549
     44 H16         1.6710    2.9162    4.2863 H         1 <0>         0.1055
     45 H17        -0.0557    2.6105    3.9810 H         1 <0>         0.0695
     46 H18         0.7407    1.8807    5.3957 H         1 <0>         0.0701
@<TRIPOS>BOND
     1    1    2 1
     2    1   30 1
     3    1   31 1
     4    1   32 1
     5    2    3 1
     6    2   33 1
     7    2   34 1
     8    3   14 1
     9    3    4 1
    10    4    9 ar
    11    4    5 ar
    12    5    6 ar
    13    5   10 1
    14    6    7 ar
    15    6   35 1
    16    7    8 ar
    17    7   36 1
    18    8    9 ar
    19    8   37 1
    20   10   11 2
    21   10   12 am
    22   12   13 1
    23   12   29 1
    24   13   18 ar
    25   13   14 ar
    26   14   15 ar
    27   15   16 ar
    28   16   17 ar
    29   16   19 1
    30   17   18 ar
    31   17   38 1
    32   18   39 1
    33   19   24 1
    34   19   20 2
    35   20   21 1
    36   20   40 1
    37   21   22 1
    38   21   23 1
    39   23   28 ar
    40   23   24 ar
    41   24   25 ar
    42   25   26 ar
    43   25   41 1
    44   26   27 ar
    45   26   42 1
    46   27   28 ar
    47   28   43 1
    48   29   44 1
    49   29   45 1
    50   29   46 1
@<TRIPOS>MOLECULE
CHEMBL355113
   46    49     0     0     0
SMALL
USER_CHARGES

@<TRIPOS>ATOM
      1 C1          0.2617   -0.8037    1.4256 C.ar      1 <0>        -0.0965
      2 C2          0.7343    0.3460    0.8210 C.ar      1 <0>        -0.0936
      3 C3          2.0502    0.4246    0.3928 C.ar      1 <0>        -0.0465
      4 C4          2.8971   -0.6572    0.5729 C.ar      1 <0>        -0.1373
      5 C5          2.4153   -1.8294    1.1898 C.ar      1 <0>        -0.1442
      6 C6          1.0972   -1.8938    1.6124 C.ar      1 <0>        -0.0433
      7 C7          3.5571   -2.7676    1.2228 C.2       1 <0>         0.5734
      8 O1          3.5374   -3.8923    1.6808 O.2       1 <0>        -0.4601
      9 N1          4.6215   -2.1674    0.6602 N.am      1 <0>        -0.5797
     10 C8          4.3153   -0.9228    0.2519 C.2       1 <0>         0.5675
     11 O2          5.0766   -0.1472   -0.2902 O.2       1 <0>        -0.4283
     12 C9          5.9405   -2.7875    0.5122 C.3       1 <0>         0.1168
     13 C10         5.9703   -3.6231   -0.7692 C.3       1 <0>         0.0410
     14 O3          5.7812   -2.7692   -1.8992 O.3       1 <0>        -0.2608
     15 C11         5.6734   -3.3634   -3.1038 C.2       1 <0>         0.4861
     16 S1          5.8854   -5.0563   -3.2452 S.2       1 <0>        -0.5127
     17 N2          5.3985   -2.6250   -4.1973 N.am      1 <0>        -0.4636
     18 C12         5.1941   -3.2528   -5.4334 C.ar      1 <0>         0.1004
     19 C13         5.9662   -2.8957   -6.5307 C.ar      1 <0>        -0.0526
     20 C14         5.7631   -3.5162   -7.7478 C.ar      1 <0>        -0.1056
     21 C15         4.7911   -4.4930   -7.8741 C.ar      1 <0>        -0.0103
     22 C16         4.0202   -4.8507   -6.7818 C.ar      1 <0>        -0.1033
     23 C17         4.2230   -4.2369   -5.5614 C.ar      1 <0>        -0.0478
     24 Cl1         4.5379   -5.2707   -9.4053 Cl        1 <0>        -0.0571
     25 C18         5.3203   -1.2829   -4.1020 C.2       1 <0>         0.5881
     26 O4          5.5318   -0.7353   -3.0361 O.2       1 <0>        -0.4128
     27 C19         4.9805   -0.4833   -5.2816 C.2       1 <0>        -0.1046
     28 C20         4.7390    0.8614   -5.2978 C.2       1 <0>        -0.0864
     29 C21         4.4550    1.2042   -6.6286 C.2       1 <0>        -0.2260
     30 C22         4.5344    0.0688   -7.3576 C.2       1 <0>         0.0096
     31 O5          4.8569   -0.9447   -6.5435 O.3       1 <0>        -0.1455
     32 H1         -0.7645   -0.8514    1.7588 H         1 <0>         0.1438
     33 H2          0.0735    1.1887    0.6810 H         1 <0>         0.1434
     34 H3          2.4139    1.3252   -0.0796 H         1 <0>         0.1421
     35 H4          0.7227   -2.7894    2.0857 H         1 <0>         0.1432
     36 H5          6.7031   -2.0106    0.4571 H         1 <0>         0.1151
     37 H6          6.1381   -3.4304    1.3699 H         1 <0>         0.1300
     38 H7          6.9332   -4.1273   -0.8518 H         1 <0>         0.1144
     39 H8          5.1730   -4.3656   -0.7374 H         1 <0>         0.1002
     40 H9          6.7247   -2.1332   -6.4328 H         1 <0>         0.1352
     41 H10         6.3632   -3.2386   -8.6017 H         1 <0>         0.1446
     42 H11         3.2620   -5.6130   -6.8830 H         1 <0>         0.1451
     43 H12         3.6239   -4.5192   -4.7083 H         1 <0>         0.1378
     44 H13         4.7622    1.5308   -4.4506 H         1 <0>         0.1647
     45 H14         4.2177    2.1900   -7.0004 H         1 <0>         0.1620
     46 H15         4.3695   -0.0078   -8.4222 H         1 <0>         0.2141
@<TRIPOS>BOND
     1    1    6 ar
     2    1    2 ar
     3    1   32 1
     4    2    3 ar
     5    2   33 1
     6    3    4 ar
     7    3   34 1
     8    4   10 1
     9    4    5 ar
    10    5    6 ar
    11    5    7 1
    12    6   35 1
    13    7    8 2
    14    7    9 am
    15    9   10 am
    16    9   12 1
    17   10   11 2
    18   12   13 1
    19   12   36 1
    20   12   37 1
    21   13   14 1
    22   13   38 1
    23   13   39 1
    24   14   15 1
    25   15   16 2
    26   15   17 1
    27   17   18 1
    28   17   25 am
    29   18   23 ar
    30   18   19 ar
    31   19   20 ar
    32   19   40 1
    33   20   21 ar
    34   20   41 1
    35   21   22 ar
    36   21   24 1
    37   22   23 ar
    38   22   42 1
    39   23   43 1
    40   25   26 2
    41   25   27 1
    42   27   31 1
    43   27   28 2
    44   28   29 1
    45   28   44 1
    46   29   30 2
    47   29   45 1
    48   30   31 1
    49   30   46 1
@<TRIPOS>MOLECULE
CHEMBL313450
   46    48     0     0     0
SMALL
USER_CHARGES

@<TRIPOS>ATOM
      1 C1         -0.0187    1.5258    0.0104 C.3       1 <0>        -0.1489
      2 C2          0.0021   -0.0041    0.0020 C.3       1 <0>        -0.0696
      3 C3          0.7309   -0.5033    1.2229 C.2       1 <0>        -0.1282
      4 C4          2.1292   -0.6125    1.2086 C.2       1 <0>        -0.1441
      5 C5          2.7754   -1.0669    2.3251 C.2       1 <0>         0.1111
      6 C6          2.0184   -1.4151    3.4655 C.2       1 <0>         0.5136
      7 N1          0.6770   -1.2973    3.4432 N.am      1 <0>        -0.5929
      8 C7          0.0370   -0.8403    2.3334 C.2       1 <0>         0.0841
      9 C8         -1.4647   -0.7135    2.3396 C.3       1 <0>        -0.1181
     10 O1          2.5794   -1.8227    4.4701 O.2       1 <0>        -0.5500
     11 N2          4.1707   -1.1860    2.3373 N.pl3     1 <0>        -0.7189
     12 C9          4.8538   -1.6737    3.5380 C.3       1 <0>         0.2019
     13 C10         6.3401   -1.7073    3.2917 C.ar      1 <0>         0.0839
     14 C11         6.9231   -2.8521    2.7675 C.ar      1 <0>         0.0964
     15 C12         8.2957   -2.8654    2.5463 C.ar      1 <0>        -0.1583
     16 C13         9.0280   -1.7305    2.8596 C.ar      1 <0>        -0.1029
     17 C14         8.3793   -0.6260    3.3787 C.ar      1 <0>         0.0799
     18 N3          7.0704   -0.6483    3.5711 N.ar      1 <0>        -0.4269
     19 C15         9.3841    0.4781    3.6364 C.3       1 <0>        -0.0662
     20 C16        10.7613   -0.2185    3.6325 C.3       1 <0>        -0.1190
     21 C17        10.5083   -1.4476    2.7336 C.3       1 <0>        -0.0818
     22 O2          6.1653   -3.9419    2.4757 O.3       1 <0>        -0.3000
     23 C18         6.8441   -5.0792    1.9392 C.3       1 <0>         0.0233
     24 H1          1.0039    1.9031    0.0027 H         1 <0>         0.0560
     25 H2         -0.5459    1.8868   -0.8726 H         1 <0>         0.0570
     26 H3         -0.5289    1.8773    0.9072 H         1 <0>         0.0546
     27 H4         -1.0205   -0.3814    0.0098 H         1 <0>         0.0736
     28 H5          0.5123   -0.3556   -0.8948 H         1 <0>         0.0724
     29 H6          2.6892   -0.3413    0.3258 H         1 <0>         0.1275
     30 H7         -1.9096   -1.6476    1.9965 H         1 <0>         0.0807
     31 H8         -1.8070   -0.4982    3.3518 H         1 <0>         0.0707
     32 H9         -1.7636    0.0970    1.6749 H         1 <0>         0.0896
     33 H10         0.1616   -1.5377    4.2290 H         1 <0>         0.4148
     34 H11         4.6848   -0.9455    1.5507 H         1 <0>         0.4018
     35 H12         4.6390   -1.0079    4.3739 H         1 <0>         0.0833
     36 H13         4.5017   -2.6780    3.7737 H         1 <0>         0.0872
     37 H14         8.7808   -3.7406    2.1398 H         1 <0>         0.1401
     38 H15         9.3362    1.2254    2.8443 H         1 <0>         0.0882
     39 H16         9.1972    0.9408    4.6054 H         1 <0>         0.0853
     40 H17        11.5221    0.4297    3.1975 H         1 <0>         0.0851
     41 H18        11.0426   -0.5263    4.6396 H         1 <0>         0.0770
     42 H19        11.0879   -2.3004    3.0868 H         1 <0>         0.0807
     43 H20        10.7630   -1.2184    1.6988 H         1 <0>         0.0873
     44 H21         6.1250   -5.8766    1.7517 H         1 <0>         0.1050
     45 H22         7.3326   -4.8034    1.0046 H         1 <0>         0.0567
     46 H23         7.5926   -5.4253    2.6520 H         1 <0>         0.0572
@<TRIPOS>BOND
     1    1    2 1
     2    1   24 1
     3    1   25 1
     4    1   26 1
     5    2   27 1
     6    2   28 1
     7    2    3 1
     8    3    8 2
     9    3    4 1
    10    4   29 1
    11    4    5 2
    12    5    6 1
    13    5   11 1
    14    6   10 2
    15    6    7 am
    16    7   33 1
    17    7    8 1
    18    8    9 1
    19    9   30 1
    20    9   31 1
    21    9   32 1
    22   11   12 1
    23   11   34 1
    24   12   13 1
    25   12   35 1
    26   12   36 1
    27   13   18 ar
    28   13   14 ar
    29   14   15 ar
    30   14   22 1
    31   15   16 ar
    32   15   37 1
    33   16   21 1
    34   16   17 ar
    35   17   18 ar
    36   17   19 1
    37   19   20 1
    38   19   38 1
    39   19   39 1
    40   20   21 1
    41   20   40 1
    42   20   41 1
    43   21   42 1
    44   21   43 1
    45   22   23 1
    46   23   44 1
    47   23   45 1
    48   23   46 1
@<TRIPOS>MOLECULE
CHEMBL146550
   40    43     0     0     0
SMALL
USER_CHARGES

@<TRIPOS>ATOM
      1 C1         -0.0187    1.5258    0.0104 C.3       1 <0>        -0.1710
      2 C2          0.0021   -0.0041    0.0020 C.3       1 <0>         0.1378
      3 N1          0.6878   -0.4765   -1.2033 N.pl3     1 <0>        -0.5786
      4 C3         -0.0234   -0.7078   -2.3685 C.ar      1 <0>         0.4165
      5 C4          0.3078   -0.0052   -3.5387 C.ar      1 <0>        -0.2017
      6 C5         -0.3680   -0.3149   -4.7242 C.ar      1 <0>        -0.0011
      7 C6         -1.3671   -1.2722   -4.6820 C.ar      1 <0>        -0.1919
      8 C7         -1.6677   -1.8888   -3.4814 C.ar      1 <0>         0.1506
      9 N2         -1.0035   -1.5985   -2.3796 N.ar      1 <0>        -0.5000
     10 C8          1.3102    1.0636   -3.5230 C.2       1 <0>         0.5767
     11 O1          1.0837    2.0455   -4.2032 O.2       1 <0>        -0.5249
     12 N3          2.4417    1.0546   -2.8338 N.am      1 <0>        -0.5377
     13 C9          2.9151    0.0258   -2.0205 C.ar      1 <0>         0.0884
     14 C10         2.0650   -0.6930   -1.1921 C.ar      1 <0>         0.3688
     15 N4          2.5568   -1.6174   -0.3782 N.ar      1 <0>        -0.4687
     16 C11         3.8508   -1.9119   -0.3527 C.ar      1 <0>         0.1996
     17 C12         4.7455   -1.2520   -1.1899 C.ar      1 <0>        -0.1457
     18 C13         4.2742   -0.2774   -2.0324 C.ar      1 <0>        -0.0762
     19 C14         4.3480   -2.9538    0.5770 C.2       1 <0>        -0.0805
     20 C15         3.4622   -3.7035    1.3461 C.2       1 <0>        -0.1296
     21 C16         3.9539   -4.6450    2.1822 C.2       1 <0>        -0.1745
     22 S1          5.7130   -4.5091    1.9135 S.3       1 <0>         0.0598
     23 C17         5.6873   -3.2049    0.6951 C.2       1 <0>        -0.1567
     24 C18         3.2829    2.2495   -2.9373 C.3       1 <0>         0.0585
     25 H1          1.0039    1.9031    0.0027 H         1 <0>         0.0540
     26 H2         -0.5459    1.8868   -0.8726 H         1 <0>         0.0541
     27 H3         -0.5289    1.8773    0.9072 H         1 <0>         0.0724
     28 H4          0.5293   -0.3651    0.8851 H         1 <0>         0.0832
     29 H5         -1.0205   -0.3814    0.0098 H         1 <0>         0.0839
     30 H6         -0.1165    0.1814   -5.6498 H         1 <0>         0.1481
     31 H7         -1.9071   -1.5355   -5.5795 H         1 <0>         0.1489
     32 H8         -2.4606   -2.6213   -3.4452 H         1 <0>         0.1680
     33 H9          5.7950   -1.5065   -1.1787 H         1 <0>         0.1475
     34 H10         4.9501    0.2503   -2.6890 H         1 <0>         0.1490
     35 H11         2.3978   -3.5351    1.2760 H         1 <0>         0.1456
     36 H12         3.4187   -5.3096    2.8442 H         1 <0>         0.1890
     37 H13         6.5148   -2.7351    0.1843 H         1 <0>         0.1912
     38 H14         2.8056    2.9738   -3.5974 H         1 <0>         0.1063
     39 H15         3.4126    2.6894   -1.9485 H         1 <0>         0.0700
     40 H16         4.2564    1.9744   -3.3431 H         1 <0>         0.0708
@<TRIPOS>BOND
     1    1    2 1
     2    1   25 1
     3    1   26 1
     4    1   27 1
     5    2    3 1
     6    2   28 1
     7    2   29 1
     8    3   14 1
     9    3    4 1
    10    4    9 ar
    11    4    5 ar
    12    5    6 ar
    13    5   10 1
    14    6    7 ar
    15    6   30 1
    16    7    8 ar
    17    7   31 1
    18    8    9 ar
    19    8   32 1
    20   10   11 2
    21   10   12 am
    22   12   13 1
    23   12   24 1
    24   13   18 ar
    25   13   14 ar
    26   14   15 ar
    27   15   16 ar
    28   16   17 ar
    29   16   19 1
    30   17   18 ar
    31   17   33 1
    32   18   34 1
    33   19   23 2
    34   19   20 1
    35   20   21 2
    36   20   35 1
    37   21   22 1
    38   21   36 1
    39   22   23 1
    40   23   37 1
    41   24   38 1
    42   24   39 1
    43   24   40 1
@<TRIPOS>MOLECULE
CHEMBL319277
   47    50     0     0     0
SMALL
USER_CHARGES

@<TRIPOS>ATOM
      1 C1         -0.0187    1.5258    0.0104 C.3       1 <0>        -0.1713
      2 C2          0.0021   -0.0041    0.0020 C.3       1 <0>         0.1354
      3 N1         -1.3723   -0.5112    0.0124 N.pl3     1 <0>        -0.5775
      4 C3         -2.0241   -0.7562    1.2210 C.ar      1 <0>         0.3804
      5 C4         -3.1924   -0.0728    1.5496 C.ar      1 <0>         0.0975
      6 C5         -3.8444   -0.3876    2.7377 C.ar      1 <0>        -0.0727
      7 C6         -3.2873   -1.3499    3.5676 C.ar      1 <0>        -0.1351
      8 C7         -2.1082   -1.9638    3.1927 C.ar      1 <0>         0.1840
      9 N2         -1.5189   -1.6578    2.0516 N.ar      1 <0>        -0.4681
     10 Cl1        -1.3916   -3.1524    4.2354 Cl        1 <0>        -0.0157
     11 N3         -3.6954    0.9509    0.7499 N.am      1 <0>        -0.5371
     12 C8         -3.7342    0.9793   -0.5741 C.2       1 <0>         0.5770
     13 O1         -4.2310    1.9594   -1.0944 O.2       1 <0>        -0.5170
     14 C9         -3.2291   -0.0691   -1.4660 C.ar      1 <0>        -0.2008
     15 C10        -2.0401   -0.7469   -1.1771 C.ar      1 <0>         0.4236
     16 N4         -1.5584   -1.6316   -2.0382 N.ar      1 <0>        -0.4963
     17 C11        -2.1937   -1.9343   -3.1534 C.ar      1 <0>         0.1801
     18 C12        -3.3989   -1.3379   -3.4760 C.ar      1 <0>        -0.1659
     19 C13        -3.9299   -0.3963   -2.6320 C.ar      1 <0>         0.0233
     20 C14        -4.1228   -1.7223   -4.7406 C.3       1 <0>         0.1093
     21 O2         -5.0092   -2.8101   -4.4701 O.3       1 <0>        -0.3108
     22 C15        -5.7434   -3.2814   -5.5120 C.ar      1 <0>         0.1277
     23 C16        -5.6091   -2.7126   -6.7702 C.ar      1 <0>        -0.2095
     24 C17        -6.3562   -3.1939   -7.8279 C.ar      1 <0>        -0.0796
     25 C18        -7.2375   -4.2413   -7.6332 C.ar      1 <0>        -0.1572
     26 C19        -7.3735   -4.8096   -6.3801 C.ar      1 <0>        -0.0799
     27 C20        -6.6242   -4.3361   -5.3206 C.ar      1 <0>        -0.1511
     28 C21        -4.2393    2.1194    1.4464 C.3       1 <0>         0.0639
     29 H1          1.0039    1.9031    0.0027 H         1 <0>         0.0745
     30 H2         -0.5459    1.8868   -0.8726 H         1 <0>         0.0550
     31 H3         -0.5289    1.8773    0.9072 H         1 <0>         0.0546
     32 H4          0.5123   -0.3556   -0.8948 H         1 <0>         0.0865
     33 H5          0.5293   -0.3651    0.8851 H         1 <0>         0.0860
     34 H6         -4.7657    0.1068    3.0083 H         1 <0>         0.1600
     35 H7         -3.7704   -1.6162    4.4961 H         1 <0>         0.1593
     36 H8         -1.7650   -2.6616   -3.8270 H         1 <0>         0.1706
     37 H9         -4.8671    0.0859   -2.8678 H         1 <0>         0.1507
     38 H10        -4.6951   -0.8693   -5.1052 H         1 <0>         0.0787
     39 H11        -3.3981   -2.0237   -5.4969 H         1 <0>         0.0810
     40 H12        -4.9214   -1.8940   -6.9226 H         1 <0>         0.1283
     41 H13        -6.2520   -2.7514   -8.8075 H         1 <0>         0.1258
     42 H14        -7.8209   -4.6159   -8.4613 H         1 <0>         0.1246
     43 H15        -8.0629   -5.6275   -6.2305 H         1 <0>         0.1300
     44 H16        -6.7275   -4.7832   -4.3430 H         1 <0>         0.1301
     45 H17        -3.4467    2.8513    1.6018 H         1 <0>         0.0701
     46 H18        -5.0320    2.5644    0.8450 H         1 <0>         0.0959
     47 H19        -4.6439    1.8117    2.4106 H         1 <0>         0.0816
@<TRIPOS>BOND
     1    1    2 1
     2    1   29 1
     3    1   30 1
     4    1   31 1
     5    2    3 1
     6    2   32 1
     7    2   33 1
     8    3   15 1
     9    3    4 1
    10    4    9 ar
    11    4    5 ar
    12    5    6 ar
    13    5   11 1
    14    6    7 ar
    15    6   34 1
    16    7    8 ar
    17    7   35 1
    18    8    9 ar
    19    8   10 1
    20   11   12 am
    21   11   28 1
    22   12   13 2
    23   12   14 1
    24   14   19 ar
    25   14   15 ar
    26   15   16 ar
    27   16   17 ar
    28   17   18 ar
    29   17   36 1
    30   18   19 ar
    31   18   20 1
    32   19   37 1
    33   20   21 1
    34   20   38 1
    35   20   39 1
    36   21   22 1
    37   22   27 ar
    38   22   23 ar
    39   23   24 ar
    40   23   40 1
    41   24   25 ar
    42   24   41 1
    43   25   26 ar
    44   25   42 1
    45   26   27 ar
    46   26   43 1
    47   27   44 1
    48   28   45 1
    49   28   46 1
    50   28   47 1
@<TRIPOS>MOLECULE
CHEMBL173635
   43    45     0     0     0
SMALL
USER_CHARGES

@<TRIPOS>ATOM
      1 C1         -0.0187    1.5258    0.0104 C.3       1 <0>        -0.1512
      2 C2          0.0021   -0.0041    0.0020 C.3       1 <0>        -0.0697
      3 C3          0.7074   -0.4901   -1.2379 C.2       1 <0>        -0.1934
      4 C4          0.0003   -0.6217   -2.4412 C.2       1 <0>         0.0023
      5 C5          0.6542   -1.0625   -3.5541 C.2       1 <0>        -0.2159
      6 C6          2.0218   -1.3748   -3.4699 C.2       1 <0>         0.5212
      7 N1          2.6734   -1.2380   -2.2994 N.am      1 <0>        -0.6038
      8 C7          2.0254   -0.7945   -1.1919 C.2       1 <0>         0.1620
      9 C8          2.7803   -0.6452    0.1038 C.3       1 <0>        -0.1320
     10 O1          2.6192   -1.7707   -4.4580 O.2       1 <0>        -0.5470
     11 C9         -0.0822   -1.2134   -4.8603 C.3       1 <0>        -0.0502
     12 C10         0.1048    0.0516   -5.7003 C.3       1 <0>        -0.0177
     13 C11        -0.6317   -0.0993   -7.0064 C.2       1 <0>         0.2018
     14 N2         -1.8684    0.2514   -7.2226 N.2       1 <0>        -0.4783
     15 C12        -2.1838   -0.0304   -8.4956 C.2       1 <0>        -0.0193
     16 C13        -1.0857   -0.5775   -9.0771 C.2       1 <0>        -0.0079
     17 O2         -0.1187   -0.6102   -8.1340 O.3       1 <0>        -0.1912
     18 C14        -0.9688   -1.0431  -10.4753 C.ar      1 <0>        -0.0157
     19 C15         0.2295   -1.5932  -10.9330 C.ar      1 <0>        -0.1004
     20 C16         0.3320   -2.0258  -12.2390 C.ar      1 <0>        -0.1156
     21 C17        -0.7497   -1.9152  -13.0945 C.ar      1 <0>        -0.1103
     22 C18        -1.9405   -1.3709  -12.6471 C.ar      1 <0>        -0.1148
     23 C19        -2.0581   -0.9398  -11.3419 C.ar      1 <0>        -0.0965
     24 H1          1.0039    1.9031    0.0027 H         1 <0>         0.0542
     25 H2         -0.5459    1.8868   -0.8726 H         1 <0>         0.0573
     26 H3         -0.5289    1.8773    0.9072 H         1 <0>         0.0597
     27 H4          0.5293   -0.3651    0.8851 H         1 <0>         0.0747
     28 H5         -1.0205   -0.3814    0.0098 H         1 <0>         0.0757
     29 H6         -1.0507   -0.3770   -2.4865 H         1 <0>         0.1379
     30 H7          2.7296   -1.5791    0.6636 H         1 <0>         0.0912
     31 H8          3.8221   -0.4047   -0.1082 H         1 <0>         0.0780
     32 H9          2.3352    0.1564    0.6933 H         1 <0>         0.0971
     33 H10         3.6173   -1.4556   -2.2478 H         1 <0>         0.4146
     34 H11         0.3133   -2.0718   -5.4032 H         1 <0>         0.0837
     35 H12        -1.1434   -1.3654   -4.6635 H         1 <0>         0.0831
     36 H13        -0.2907    0.9101   -5.1573 H         1 <0>         0.1072
     37 H14         1.1660    0.2036   -5.8970 H         1 <0>         0.0963
     38 H15        -3.1373    0.1458   -8.9712 H         1 <0>         0.1869
     39 H16         1.0748   -1.6797  -10.2663 H         1 <0>         0.1283
     40 H17         1.2588   -2.4513  -12.5945 H         1 <0>         0.1291
     41 H18        -0.6642   -2.2550  -14.1160 H         1 <0>         0.1277
     42 H19        -2.7811   -1.2871  -13.3200 H         1 <0>         0.1314
     43 H20        -2.9895   -0.5192  -10.9926 H         1 <0>         0.1299
@<TRIPOS>BOND
     1    1    2 1
     2    1   24 1
     3    1   25 1
     4    1   26 1
     5    2   27 1
     6    2   28 1
     7    2    3 1
     8    3    8 2
     9    3    4 1
    10    4   29 1
    11    4    5 2
    12    5    6 1
    13    5   11 1
    14    6   10 2
    15    6    7 am
    16    7   33 1
    17    7    8 1
    18    8    9 1
    19    9   30 1
    20    9   31 1
    21    9   32 1
    22   11   12 1
    23   11   34 1
    24   11   35 1
    25   12   13 1
    26   12   36 1
    27   12   37 1
    28   13   17 1
    29   13   14 2
    30   14   15 1
    31   15   16 2
    32   15   38 1
    33   16   17 1
    34   16   18 1
    35   18   23 ar
    36   18   19 ar
    37   19   20 ar
    38   19   39 1
    39   20   21 ar
    40   20   40 1
    41   21   22 ar
    42   21   41 1
    43   22   23 ar
    44   22   42 1
    45   23   43 1
@<TRIPOS>MOLECULE
CHEMBL144561
   40    43     0     0     0
SMALL
USER_CHARGES

@<TRIPOS>ATOM
      1 C1         -0.0187    1.5258    0.0104 C.3       1 <0>        -0.1715
      2 C2          0.0021   -0.0041    0.0020 C.3       1 <0>         0.1367
      3 N1          0.6878   -0.4765   -1.2033 N.pl3     1 <0>        -0.5777
      4 C3         -0.0233   -0.7079   -2.3685 C.ar      1 <0>         0.4156
      5 C4          0.3082   -0.0054   -3.5387 C.ar      1 <0>        -0.2026
      6 C5         -0.3677   -0.3150   -4.7243 C.ar      1 <0>        -0.0007
      7 C6         -1.3670   -1.2721   -4.6821 C.ar      1 <0>        -0.1908
      8 C7         -1.6678   -1.8886   -3.4814 C.ar      1 <0>         0.1518
      9 N2         -1.0036   -1.5983   -2.3796 N.ar      1 <0>        -0.4984
     10 C8          1.3109    1.0630   -3.5231 C.2       1 <0>         0.5773
     11 O1          1.0845    2.0450   -4.2033 O.2       1 <0>        -0.5215
     12 N3          2.4420    1.0543   -2.8334 N.am      1 <0>        -0.5386
     13 C9          2.9151    0.0268   -2.0208 C.ar      1 <0>         0.0991
     14 C10         2.0648   -0.6930   -1.1922 C.ar      1 <0>         0.3731
     15 N4          2.5563   -1.6166   -0.3786 N.ar      1 <0>        -0.4529
     16 C11         3.8514   -1.9114   -0.3532 C.ar      1 <0>         0.2012
     17 C12         4.7464   -1.2513   -1.1919 C.ar      1 <0>        -0.1457
     18 C13         4.2744   -0.2759   -2.0324 C.ar      1 <0>        -0.0741
     19 C14         4.3477   -2.9500    0.5746 C.2       1 <0>         0.1143
     20 C15         3.5941   -3.6825    1.4487 C.2       1 <0>        -0.2079
     21 C16         4.4502   -4.5463    2.1314 C.2       1 <0>         0.0448
     22 N5          5.6704   -4.3542    1.6981 N.2       1 <0>        -0.2711
     23 N6          5.6411   -3.3590    0.7128 N.pl3     1 <0>        -0.4698
     24 H1          6.4042   -3.0202    0.2189 H         1 <0>         0.4385
     25 C17         3.2827    2.2496   -2.9364 C.3       1 <0>         0.0573
     26 H2          1.0039    1.9031    0.0027 H         1 <0>         0.0538
     27 H3         -0.5459    1.8868   -0.8726 H         1 <0>         0.0544
     28 H4         -0.5289    1.8773    0.9072 H         1 <0>         0.0734
     29 H5          0.5293   -0.3651    0.8851 H         1 <0>         0.0850
     30 H6         -1.0205   -0.3814    0.0098 H         1 <0>         0.0856
     31 H7         -0.1155    0.1806   -5.6501 H         1 <0>         0.1485
     32 H8         -1.9070   -1.5354   -5.5796 H         1 <0>         0.1495
     33 H9         -2.4611   -2.6206   -3.4451 H         1 <0>         0.1689
     34 H10         5.7959   -1.5061   -1.1815 H         1 <0>         0.1433
     35 H11         4.9502    0.2524   -2.6886 H         1 <0>         0.1525
     36 H12         2.5257   -3.6060    1.5862 H         1 <0>         0.1581
     37 H13         4.1555   -5.2552    2.8911 H         1 <0>         0.1902
     38 H14         2.8054    2.9737   -3.5967 H         1 <0>         0.1076
     39 H15         3.4118    2.6893   -1.9475 H         1 <0>         0.0712
     40 H16         4.2566    1.9749   -3.3419 H         1 <0>         0.0715
@<TRIPOS>BOND
     1    1    2 1
     2    1   26 1
     3    1   27 1
     4    1   28 1
     5    2    3 1
     6    2   29 1
     7    2   30 1
     8    3   14 1
     9    3    4 1
    10    4    9 ar
    11    4    5 ar
    12    5    6 ar
    13    5   10 1
    14    6    7 ar
    15    6   31 1
    16    7    8 ar
    17    7   32 1
    18    8    9 ar
    19    8   33 1
    20   10   11 2
    21   10   12 am
    22   12   13 1
    23   12   25 1
    24   13   18 ar
    25   13   14 ar
    26   14   15 ar
    27   15   16 ar
    28   16   17 ar
    29   16   19 1
    30   17   18 ar
    31   17   34 1
    32   18   35 1
    33   19   23 1
    34   19   20 2
    35   20   21 1
    36   20   36 1
    37   21   22 2
    38   21   37 1
    39   22   23 1
    40   23   24 1
    41   25   38 1
    42   25   39 1
    43   25   40 1
@<TRIPOS>MOLECULE
CHEMBL144561__1
   40    43     0     0     0
SMALL
USER_CHARGES

@<TRIPOS>ATOM
      1 C1         -0.0187    1.5258    0.0104 C.3       1 <0>        -0.1715
      2 C2          0.0021   -0.0041    0.0020 C.3       1 <0>         0.1375
      3 N1         -1.3723   -0.5112    0.0124 N.pl3     1 <0>        -0.5775
      4 C3         -2.0201   -0.7546    1.2117 C.ar      1 <0>         0.4170
      5 C4         -3.2165   -0.0809    1.5072 C.ar      1 <0>        -0.2019
      6 C5         -3.8975   -0.4037    2.6863 C.ar      1 <0>        -0.0009
      7 C6         -3.3375   -1.3441    3.5339 C.ar      1 <0>        -0.1922
      8 C7         -2.1321   -1.9317    3.1963 C.ar      1 <0>         0.1508
      9 N2         -1.5174   -1.6298    2.0692 N.ar      1 <0>        -0.4994
     10 C8         -3.7309    0.9719    0.6273 C.2       1 <0>         0.5772
     11 O1         -4.2311    1.9436    1.1600 O.2       1 <0>        -0.5242
     12 N3         -3.6991    0.9591   -0.6971 N.am      1 <0>        -0.5379
     13 C9         -3.2064   -0.0597   -1.5096 C.ar      1 <0>         0.0987
     14 C10        -2.0455   -0.7488   -1.1850 C.ar      1 <0>         0.3656
     15 N4         -1.5636   -1.6637   -2.0145 N.ar      1 <0>        -0.4558
     16 C11        -2.1808   -1.9778   -3.1466 C.ar      1 <0>         0.2139
     17 C12        -3.3690   -1.3496   -3.5052 C.ar      1 <0>        -0.1238
     18 C13        -3.8881   -0.3844   -2.6793 C.ar      1 <0>        -0.0819
     19 C14        -1.5975   -3.0089   -4.0389 C.2       1 <0>         0.1140
     20 C15        -0.4096   -3.7300   -3.8070 C.2       1 <0>        -0.2308
     21 C16        -0.2245   -4.5691   -4.8491 C.2       1 <0>         0.0548
     22 N5         -1.2484   -4.3945   -5.7122 N.pl3     1 <0>        -0.4667
     23 N6         -2.1013   -3.4164   -5.1852 N.2       1 <0>        -0.2721
     24 H1         -1.3733   -4.8670   -6.5501 H         1 <0>         0.4436
     25 C17        -4.2385    2.1388   -1.3781 C.3       1 <0>         0.0578
     26 H2          1.0039    1.9031    0.0027 H         1 <0>         0.0722
     27 H3         -0.5459    1.8868   -0.8726 H         1 <0>         0.0543
     28 H4         -0.5289    1.8773    0.9072 H         1 <0>         0.0540
     29 H5          0.5123   -0.3556   -0.8948 H         1 <0>         0.0844
     30 H6          0.5293   -0.3651    0.8851 H         1 <0>         0.0842
     31 H7         -4.8375    0.0693    2.9291 H         1 <0>         0.1480
     32 H8         -3.8378   -1.6163    4.4516 H         1 <0>         0.1487
     33 H9         -1.6860   -2.6504    3.8677 H         1 <0>         0.1679
     34 H10        -3.8771   -1.6204   -4.4189 H         1 <0>         0.1534
     35 H11        -4.8076    0.1194   -2.9383 H         1 <0>         0.1510
     36 H12         0.2381   -3.6295   -2.9486 H         1 <0>         0.1563
     37 H13         0.5981   -5.2583   -4.9709 H         1 <0>         0.1824
     38 H14        -4.5895    2.8571   -0.6372 H         1 <0>         0.1065
     39 H15        -3.4578    2.5960   -1.9861 H         1 <0>         0.0708
     40 H16        -5.0694    1.8409   -2.0175 H         1 <0>         0.0717
@<TRIPOS>BOND
     1    1    2 1
     2    1   26 1
     3    1   27 1
     4    1   28 1
     5    2    3 1
     6    2   29 1
     7    2   30 1
     8    3   14 1
     9    3    4 1
    10    4    9 ar
    11    4    5 ar
    12    5    6 ar
    13    5   10 1
    14    6    7 ar
    15    6   31 1
    16    7    8 ar
    17    7   32 1
    18    8    9 ar
    19    8   33 1
    20   10   11 2
    21   10   12 am
    22   12   13 1
    23   12   25 1
    24   13   18 ar
    25   13   14 ar
    26   14   15 ar
    27   15   16 ar
    28   16   17 ar
    29   16   19 1
    30   17   18 ar
    31   17   34 1
    32   18   35 1
    33   19   23 2
    34   19   20 1
    35   20   36 1
    36   20   21 2
    37   21   37 1
    38   21   22 1
    39   22   23 1
    40   22   24 1
    41   25   38 1
    42   25   39 1
    43   25   40 1
@<TRIPOS>MOLECULE
CHEMBL352047
   49    52     0     0     0
SMALL
USER_CHARGES

@<TRIPOS>ATOM
      1 C1         -2.0742    0.6387   -2.8839 C.ar      1 <0>        -0.0945
      2 C2         -1.1278    1.6458   -2.9165 C.ar      1 <0>        -0.0937
      3 C3          0.1704    1.4039   -2.4952 C.ar      1 <0>        -0.0440
      4 C4          0.5207    0.1437   -2.0379 C.ar      1 <0>        -0.1403
      5 C5         -0.4444   -0.8830   -2.0043 C.ar      1 <0>        -0.1431
      6 C6         -1.7382   -0.6268   -2.4291 C.ar      1 <0>        -0.0431
      7 C7          0.2511   -2.0746   -1.4737 C.2       1 <0>         0.5735
      8 O1         -0.2492   -3.1668   -1.2958 O.2       1 <0>        -0.4569
      9 N1          1.5312   -1.7468   -1.2214 N.am      1 <0>        -0.5795
     10 C8          1.7700   -0.4586   -1.5267 C.2       1 <0>         0.5746
     11 O2          2.8341    0.1136   -1.4035 O.2       1 <0>        -0.4434
     12 C9          2.5331   -2.6709   -0.6843 C.3       1 <0>         0.1166
     13 C10         3.2452   -3.3785   -1.8389 C.3       1 <0>         0.0465
     14 O3          3.9836   -2.4215   -2.6011 O.3       1 <0>        -0.2894
     15 C11         4.6731   -2.8851   -3.6620 C.2       1 <0>         0.4569
     16 S1          4.6377   -4.5537   -4.0431 S.2       1 <0>        -0.4550
     17 N2          5.3905   -2.0351   -4.4230 N.am      1 <0>        -0.4543
     18 C12         5.3369   -0.6568   -4.1751 C.ar      1 <0>         0.0872
     19 C13         4.9348    0.2150   -5.1781 C.ar      1 <0>        -0.0898
     20 C14         4.8828    1.5729   -4.9314 C.ar      1 <0>        -0.0947
     21 C15         5.2315    2.0648   -3.6858 C.ar      1 <0>        -0.0179
     22 C16         5.6331    1.1980   -2.6846 C.ar      1 <0>        -0.0782
     23 C17         5.6804   -0.1613   -2.9244 C.ar      1 <0>        -0.0782
     24 Cl1         5.1657    3.7722   -3.3790 Cl        1 <0>        -0.0530
     25 C18         6.1596   -2.5106   -5.4225 C.2       1 <0>         0.5382
     26 O4          6.1742   -3.7016   -5.6641 O.2       1 <0>        -0.3860
     27 C19         6.9845   -1.5844   -6.2241 C.ar      1 <0>        -0.1371
     28 C20         7.4458   -0.3916   -5.6629 C.ar      1 <0>        -0.0722
     29 C21         8.2156    0.4691   -6.4164 C.ar      1 <0>        -0.1152
     30 C22         8.5313    0.1529   -7.7276 C.ar      1 <0>        -0.0026
     31 C23         8.0767   -1.0287   -8.2899 C.ar      1 <0>        -0.1169
     32 C24         7.3114   -1.9005   -7.5447 C.ar      1 <0>        -0.0393
     33 Cl2         9.5000    1.2422   -8.6703 Cl        1 <0>        -0.0539
     34 H1         -3.0835    0.8406   -3.2109 H         1 <0>         0.1441
     35 H2         -1.4018    2.6277   -3.2730 H         1 <0>         0.1437
     36 H3          0.9058    2.1943   -2.5235 H         1 <0>         0.1419
     37 H4         -2.4818   -1.4097   -2.4055 H         1 <0>         0.1434
     38 H5          3.2616   -2.1144   -0.0946 H         1 <0>         0.1127
     39 H6          2.0427   -3.4109   -0.0517 H         1 <0>         0.1312
     40 H7          3.9271   -4.1293   -1.4397 H         1 <0>         0.1129
     41 H8          2.5073   -3.8617   -2.4793 H         1 <0>         0.0976
     42 H9          4.6632   -0.1684   -6.1506 H         1 <0>         0.1389
     43 H10         4.5700    2.2514   -5.7113 H         1 <0>         0.1462
     44 H11         5.9054    1.5844   -1.7136 H         1 <0>         0.1459
     45 H12         5.9889   -0.8379   -2.1412 H         1 <0>         0.1389
     46 H13         7.1998   -0.1436   -4.6409 H         1 <0>         0.1437
     47 H14         8.5729    1.3918   -5.9836 H         1 <0>         0.1430
     48 H15         8.3262   -1.2697   -9.3127 H         1 <0>         0.1464
     49 H16         6.9614   -2.8235   -7.9827 H         1 <0>         0.1484
@<TRIPOS>BOND
     1    1    6 ar
     2    1    2 ar
     3    1   34 1
     4    2    3 ar
     5    2   35 1
     6    3    4 ar
     7    3   36 1
     8    4   10 1
     9    4    5 ar
    10    5    6 ar
    11    5    7 1
    12    6   37 1
    13    7    8 2
    14    7    9 am
    15    9   10 am
    16    9   12 1
    17   10   11 2
    18   12   13 1
    19   12   38 1
    20   12   39 1
    21   13   14 1
    22   13   40 1
    23   13   41 1
    24   14   15 1
    25   15   16 2
    26   15   17 1
    27   17   18 1
    28   17   25 am
    29   18   23 ar
    30   18   19 ar
    31   19   20 ar
    32   19   42 1
    33   20   21 ar
    34   20   43 1
    35   21   22 ar
    36   21   24 1
    37   22   23 ar
    38   22   44 1
    39   23   45 1
    40   25   26 2
    41   25   27 1
    42   27   32 ar
    43   27   28 ar
    44   28   29 ar
    45   28   46 1
    46   29   30 ar
    47   29   47 1
    48   30   31 ar
    49   30   33 1
    50   31   32 ar
    51   31   48 1
    52   32   49 1
@<TRIPOS>MOLECULE
CHEMBL607878
   35    36     0     0     0
SMALL
USER_CHARGES

@<TRIPOS>ATOM
      1 C1          0.0180   -1.1779   -0.0044 C.1       1 <0>        -0.1526
      2 C2          0.0021   -0.0041    0.0020 C.1       1 <0>        -0.1821
      3 C3         -0.0179    1.4678    0.0101 C.3       1 <0>         0.2319
      4 C4         -0.6975    1.9752    1.3001 C.3       1 <0>         0.0580
      5 H1         -1.2848    2.8719    1.1022 H         1 <0>         0.1049
      6 C5          0.5199    2.3012    2.2077 C.3       1 <0>         0.0305
      7 H2          0.8789    1.4081    2.7192 H         1 <0>         0.0946
      8 C6          1.5467    2.7936    1.1569 C.3       1 <0>         0.3056
      9 O1          1.3228    1.9720    0.0000 O.3       1 <0>        -0.2928
     10 N1          2.9121    2.6093    1.6549 N.am      1 <0>        -0.5552
     11 C7          3.2768    3.2529    2.8266 C.2       1 <0>         0.1902
     12 C8          4.4924    3.1275    3.3280 C.2       1 <0>        -0.3280
     13 C9          5.4837    2.2569    2.5847 C.3       1 <0>         0.3060
     14 N2          5.0150    1.6095    1.3483 N.am      1 <0>        -0.7325
     15 C10         3.7425    1.8228    0.9568 C.2       1 <0>         0.6908
     16 O2          3.3393    1.2914   -0.0597 O.2       1 <0>        -0.4719
     17 N3          5.9365    1.2031    3.5027 N.4       1 <0>        -0.6558
     18 O3          0.2032    3.3342    3.1429 O.3       1 <0>        -0.5482
     19 O4         -1.5115    0.9547    1.8813 O.3       1 <0>        -0.5321
     20 C11        -0.7755    1.9832   -1.2152 C.3       1 <0>         0.0803
     21 O5         -0.2069    1.4192   -2.3987 O.3       1 <0>        -0.5541
     22 H3          0.0322   -2.2278   -0.0102 H         1 <0>         0.2200
     23 H4          1.3690    3.8418    0.9166 H         1 <0>         0.1227
     24 H5          2.5533    3.8691    3.3396 H         1 <0>         0.1832
     25 H6          4.7713    3.6317    4.2415 H         1 <0>         0.1850
     26 H7          6.3480    2.8719    2.3342 H         1 <0>         0.1497
     27 H8          5.6058    1.0408    0.8301 H         1 <0>         0.4398
     28 H9          5.1444    0.6539    3.8011 H         1 <0>         0.4299
     29 H10         6.5998    0.6076    3.0300 H         1 <0>         0.4311
     30 H11        -0.5121    3.1069    3.7527 H         1 <0>         0.3979
     31 H12        -1.9600    1.2248    2.6943 H         1 <0>         0.3881
     32 H13        -1.8239    1.6939   -1.1423 H         1 <0>         0.0706
     33 H14        -0.7005    3.0697   -1.2582 H         1 <0>         0.0635
     34 H15        -0.6386    1.7029   -3.2162 H         1 <0>         0.3873
     35 H16         6.3762    1.6242    4.3073 H         1 <0>         0.4436
@<TRIPOS>BOND
     1    1    2 3
     2    1   22 1
     3    2    3 1
     4    3    9 1
     5    3    4 1
     6    3   20 1
     7    4    5 1
     8    4    6 1
     9    4   19 1
    10    6    7 1
    11    6    8 1
    12    6   18 1
    13    8    9 1
    14    8   10 1
    15    8   23 1
    16   10   15 am
    17   10   11 1
    18   11   12 2
    19   11   24 1
    20   12   13 1
    21   12   25 1
    22   13   14 1
    23   13   17 1
    24   13   26 1
    25   14   15 am
    26   14   27 1
    27   15   16 2
    28   17   28 1
    29   17   29 1
    30   17   35 1
    31   18   30 1
    32   19   31 1
    33   20   21 1
    34   20   32 1
    35   20   33 1
    36   21   34 1
@<TRIPOS>MOLECULE
CHEMBL607878__1
   34    35     0     0     0
SMALL
USER_CHARGES

@<TRIPOS>ATOM
      1 C1          0.0180   -1.1779   -0.0044 C.1       1 <0>        -0.1656
      2 C2          0.0021   -0.0041    0.0020 C.1       1 <0>        -0.1708
      3 C3         -0.0179    1.4678    0.0101 C.3       1 <0>         0.2271
      4 C4         -0.6975    1.9752    1.3001 C.3       1 <0>         0.0571
      5 H1         -1.2848    2.8719    1.1022 H         1 <0>         0.0993
      6 C5          0.5199    2.3012    2.2077 C.3       1 <0>         0.0312
      7 H2          0.8789    1.4081    2.7192 H         1 <0>         0.0957
      8 C6          1.5467    2.7936    1.1569 C.3       1 <0>         0.3157
      9 O1          1.3228    1.9720    0.0000 O.3       1 <0>        -0.2866
     10 N1          2.9121    2.6093    1.6549 N.am      1 <0>        -0.5589
     11 C7          3.2768    3.2529    2.8266 C.2       1 <0>         0.1140
     12 C8          4.4924    3.1275    3.3280 C.2       1 <0>        -0.2381
     13 C9          5.4837    2.2569    2.5847 C.3       1 <0>         0.3499
     14 N2          5.0150    1.6095    1.3483 N.am      1 <0>        -0.7205
     15 C10         3.7425    1.8228    0.9568 C.2       1 <0>         0.7002
     16 O2          3.3393    1.2914   -0.0597 O.2       1 <0>        -0.5277
     17 N3          5.9365    1.2031    3.5027 N.3       1 <0>        -0.8605
     18 O3          0.2032    3.3342    3.1429 O.3       1 <0>        -0.5460
     19 O4         -1.5115    0.9547    1.8813 O.3       1 <0>        -0.5349
     20 C11        -0.7755    1.9832   -1.2152 C.3       1 <0>         0.0830
     21 O5         -0.2069    1.4192   -2.3987 O.3       1 <0>        -0.5513
     22 H3          0.0322   -2.2278   -0.0102 H         1 <0>         0.2176
     23 H4          1.3690    3.8418    0.9166 H         1 <0>         0.1086
     24 H5          2.5533    3.8691    3.3396 H         1 <0>         0.1605
     25 H6          4.7713    3.6317    4.2415 H         1 <0>         0.1561
     26 H7          6.3480    2.8719    2.3342 H         1 <0>         0.0434
     27 H8          5.6058    1.0408    0.8301 H         1 <0>         0.4230
     28 H9          6.6021    0.5929    3.0525 H         1 <0>         0.3428
     29 H10         6.3225    1.5998    4.3463 H         1 <0>         0.3544
     30 H11        -0.5121    3.1069    3.7527 H         1 <0>         0.3893
     31 H12        -1.9600    1.2248    2.6943 H         1 <0>         0.3840
     32 H13        -1.8239    1.6939   -1.1423 H         1 <0>         0.0654
     33 H14        -0.7005    3.0697   -1.2582 H         1 <0>         0.0612
     34 H15        -0.6386    1.7029   -3.2162 H         1 <0>         0.3813
@<TRIPOS>BOND
     1    1    2 3
     2    1   22 1
     3    2    3 1
     4    3    9 1
     5    3    4 1
     6    3   20 1
     7    4    5 1
     8    4    6 1
     9    4   19 1
    10    6    7 1
    11    6    8 1
    12    6   18 1
    13    8    9 1
    14    8   10 1
    15    8   23 1
    16   10   15 am
    17   10   11 1
    18   11   12 2
    19   11   24 1
    20   12   13 1
    21   12   25 1
    22   13   14 1
    23   13   17 1
    24   13   26 1
    25   14   15 am
    26   14   27 1
    27   15   16 2
    28   17   28 1
    29   17   29 1
    30   18   30 1
    31   19   31 1
    32   20   21 1
    33   20   32 1
    34   20   33 1
    35   21   34 1
@<TRIPOS>MOLECULE
CHEMBL607878__2
   35    36     0     0     0
SMALL
USER_CHARGES

@<TRIPOS>ATOM
      1 C1          0.0180   -1.1779   -0.0044 C.1       1 <0>        -0.1494
      2 C2          0.0021   -0.0041    0.0020 C.1       1 <0>        -0.1850
      3 C3         -0.0179    1.4678    0.0101 C.3       1 <0>         0.2328
      4 C4         -0.6975    1.9752    1.3001 C.3       1 <0>         0.0583
      5 H1         -1.2848    2.8719    1.1022 H         1 <0>         0.1042
      6 C5          0.5199    2.3012    2.2077 C.3       1 <0>         0.0287
      7 H2          0.8789    1.4081    2.7192 H         1 <0>         0.0967
      8 C6          1.5467    2.7936    1.1569 C.3       1 <0>         0.3060
      9 O1          1.3228    1.9720    0.0000 O.3       1 <0>        -0.2937
     10 N1          2.9121    2.6093    1.6549 N.am      1 <0>        -0.5554
     11 C7          3.2768    3.2529    2.8266 C.2       1 <0>         0.1902
     12 C8          4.4924    3.1275    3.3280 C.2       1 <0>        -0.3282
     13 C9          5.4837    2.2569    2.5847 C.3       1 <0>         0.3063
     14 N2          5.0150    1.6095    1.3483 N.am      1 <0>        -0.7329
     15 C10         3.7425    1.8228    0.9568 C.2       1 <0>         0.6909
     16 O2          3.3393    1.2914   -0.0597 O.2       1 <0>        -0.4718
     17 N3          6.6485    3.0858    2.2470 N.4       1 <0>        -0.6552
     18 O3          0.2032    3.3342    3.1429 O.3       1 <0>        -0.5492
     19 O4         -1.5115    0.9547    1.8813 O.3       1 <0>        -0.5317
     20 C11        -0.7755    1.9832   -1.2152 C.3       1 <0>         0.0810
     21 O5         -0.2069    1.4192   -2.3987 O.3       1 <0>        -0.5540
     22 H3          0.0322   -2.2278   -0.0102 H         1 <0>         0.2203
     23 H4          1.3690    3.8418    0.9166 H         1 <0>         0.1228
     24 H5          2.5533    3.8691    3.3396 H         1 <0>         0.1831
     25 H6          4.7713    3.6317    4.2415 H         1 <0>         0.1849
     26 H7          5.8197    1.4750    3.2658 H         1 <0>         0.1481
     27 H8          5.6058    1.0408    0.8301 H         1 <0>         0.4397
     28 H9          7.0641    3.4430    3.0942 H         1 <0>         0.4434
     29 H10         7.3259    2.5273    1.7497 H         1 <0>         0.4311
     30 H11        -0.5121    3.1069    3.7527 H         1 <0>         0.3984
     31 H12        -1.9600    1.2248    2.6943 H         1 <0>         0.3883
     32 H13        -1.8239    1.6939   -1.1423 H         1 <0>         0.0707
     33 H14        -0.7005    3.0697   -1.2582 H         1 <0>         0.0627
     34 H15        -0.6386    1.7029   -3.2162 H         1 <0>         0.3868
     35 H16         6.3556    3.8564    1.6652 H         1 <0>         0.4310
@<TRIPOS>BOND
     1    1    2 3
     2    1   22 1
     3    2    3 1
     4    3    9 1
     5    3    4 1
     6    3   20 1
     7    4    5 1
     8    4    6 1
     9    4   19 1
    10    6    7 1
    11    6    8 1
    12    6   18 1
    13    8    9 1
    14    8   10 1
    15    8   23 1
    16   10   15 am
    17   10   11 1
    18   11   12 2
    19   11   24 1
    20   12   13 1
    21   12   25 1
    22   13   14 1
    23   13   17 1
    24   13   26 1
    25   14   15 am
    26   14   27 1
    27   15   16 2
    28   17   28 1
    29   17   29 1
    30   17   35 1
    31   18   30 1
    32   19   31 1
    33   20   21 1
    34   20   32 1
    35   20   33 1
    36   21   34 1
@<TRIPOS>MOLECULE
CHEMBL607878__3
   34    35     0     0     0
SMALL
USER_CHARGES

@<TRIPOS>ATOM
      1 C1          0.0180   -1.1779   -0.0044 C.1       1 <0>        -0.1658
      2 C2          0.0021   -0.0041    0.0020 C.1       1 <0>        -0.1707
      3 C3         -0.0179    1.4678    0.0101 C.3       1 <0>         0.2269
      4 C4         -0.6975    1.9752    1.3001 C.3       1 <0>         0.0570
      5 H1         -1.2848    2.8719    1.1022 H         1 <0>         0.0995
      6 C5          0.5199    2.3012    2.2077 C.3       1 <0>         0.0313
      7 H2          0.8789    1.4081    2.7192 H         1 <0>         0.0949
      8 C6          1.5467    2.7936    1.1569 C.3       1 <0>         0.3154
      9 O1          1.3228    1.9720    0.0000 O.3       1 <0>        -0.2869
     10 N1          2.9121    2.6093    1.6549 N.am      1 <0>        -0.5605
     11 C7          3.2768    3.2529    2.8266 C.2       1 <0>         0.1042
     12 C8          4.4924    3.1275    3.3280 C.2       1 <0>        -0.2287
     13 C9          5.4837    2.2569    2.5847 C.3       1 <0>         0.3326
     14 N2          5.0150    1.6095    1.3483 N.am      1 <0>        -0.7547
     15 C10         3.7425    1.8228    0.9568 C.2       1 <0>         0.6922
     16 O2          3.3393    1.2914   -0.0597 O.2       1 <0>        -0.5291
     17 N3          6.6485    3.0858    2.2470 N.3       1 <0>        -0.8378
     18 O3          0.2032    3.3342    3.1429 O.3       1 <0>        -0.5456
     19 O4         -1.5115    0.9547    1.8813 O.3       1 <0>        -0.5349
     20 C11        -0.7755    1.9832   -1.2152 C.3       1 <0>         0.0828
     21 O5         -0.2069    1.4192   -2.3987 O.3       1 <0>        -0.5516
     22 H3          0.0322   -2.2278   -0.0102 H         1 <0>         0.2178
     23 H4          1.3690    3.8418    0.9166 H         1 <0>         0.1082
     24 H5          2.5533    3.8691    3.3396 H         1 <0>         0.1614
     25 H6          4.7713    3.6317    4.2415 H         1 <0>         0.1619
     26 H7          5.8197    1.4750    3.2658 H         1 <0>         0.0893
     27 H8          5.6058    1.0408    0.8301 H         1 <0>         0.4202
     28 H9          7.3419    2.5489    1.7480 H         1 <0>         0.3440
     29 H10         6.3721    3.8997    1.7185 H         1 <0>         0.3444
     30 H11        -0.5121    3.1069    3.7527 H         1 <0>         0.3895
     31 H12        -1.9600    1.2248    2.6943 H         1 <0>         0.3842
     32 H13        -1.8239    1.6939   -1.1423 H         1 <0>         0.0656
     33 H14        -0.7005    3.0697   -1.2582 H         1 <0>         0.0612
     34 H15        -0.6386    1.7029   -3.2162 H         1 <0>         0.3816
@<TRIPOS>BOND
     1    1    2 3
     2    1   22 1
     3    2    3 1
     4    3    9 1
     5    3    4 1
     6    3   20 1
     7    4    5 1
     8    4    6 1
     9    4   19 1
    10    6    7 1
    11    6    8 1
    12    6   18 1
    13    8    9 1
    14    8   10 1
    15    8   23 1
    16   10   15 am
    17   10   11 1
    18   11   12 2
    19   11   24 1
    20   12   13 1
    21   12   25 1
    22   13   14 1
    23   13   17 1
    24   13   26 1
    25   14   15 am
    26   14   27 1
    27   15   16 2
    28   17   28 1
    29   17   29 1
    30   18   30 1
    31   19   31 1
    32   20   21 1
    33   20   32 1
    34   20   33 1
    35   21   34 1
@<TRIPOS>MOLECULE
CHEMBL607878__4
   35    36     0     0     0
SMALL
USER_CHARGES

@<TRIPOS>ATOM
      1 C1          0.0180   -1.1779   -0.0044 C.1       1 <0>        -0.1343
      2 C2          0.0021   -0.0041    0.0020 C.1       1 <0>        -0.2109
      3 C3         -0.0179    1.4678    0.0101 C.3       1 <0>         0.2453
      4 C4         -0.6892    1.9756    1.3009 C.3       1 <0>         0.0581
      5 H1         -1.5268    2.6313    1.0627 H         1 <0>         0.0996
      6 C5          0.4285    2.7653    2.0245 C.3       1 <0>         0.0345
      7 H2          0.4111    2.5699    3.0967 H         1 <0>         0.1006
      8 C6          1.7099    2.1818    1.3766 C.3       1 <0>         0.3058
      9 O1          1.3271    1.9749   -0.0000 O.3       1 <0>        -0.3433
     10 N1          2.8152    3.1392    1.4664 N.am      1 <0>        -0.5369
     11 C7          2.7042    4.3376    0.7796 C.2       1 <0>         0.2205
     12 C8          3.6655    5.2425    0.8198 C.2       1 <0>        -0.3430
     13 C9          4.9001    4.9349    1.6410 C.3       1 <0>         0.3082
     14 N2          4.9374    3.6394    2.3393 N.am      1 <0>        -0.7271
     15 C10         3.8793    2.8133    2.2128 C.2       1 <0>         0.7104
     16 O2          3.8932    1.7418    2.7872 O.2       1 <0>        -0.5241
     17 N3          5.0489    5.9949    2.6472 N.4       1 <0>        -0.6553
     18 O3          0.3156    4.1654    1.7619 O.3       1 <0>        -0.5518
     19 O4         -1.1280    0.8767    2.1021 O.3       1 <0>        -0.5329
     20 C11        -0.7779    1.9843   -1.2132 C.3       1 <0>         0.0921
     21 O5         -0.2120    1.4209   -2.3983 O.3       1 <0>        -0.5565
     22 H3          0.0322   -2.2278   -0.0102 H         1 <0>         0.2221
     23 H4          1.9809    1.2361    1.8460 H         1 <0>         0.1427
     24 H5          1.8147    4.5353    0.1999 H         1 <0>         0.1822
     25 H6          3.5739    6.1748    0.2822 H         1 <0>         0.1832
     26 H7          5.7641    4.9835    0.9783 H         1 <0>         0.1507
     27 H8          5.7026    3.3878    2.8798 H         1 <0>         0.4422
     28 H9          4.2318    6.0141    3.2388 H         1 <0>         0.4305
     29 H10         5.8669    5.8127    3.2091 H         1 <0>         0.4301
     30 H11        -0.5128    4.5578    2.0699 H         1 <0>         0.3947
     31 H12        -1.5583    1.1389    2.9275 H         1 <0>         0.3897
     32 H13        -1.8262    1.6954   -1.1383 H         1 <0>         0.0727
     33 H14        -0.7025    3.0708   -1.2557 H         1 <0>         0.0666
     34 H15        -0.6454    1.7053   -3.2147 H         1 <0>         0.3891
     35 H16         5.1503    6.8859    2.1847 H         1 <0>         0.4444
@<TRIPOS>BOND
     1    1    2 3
     2    1   22 1
     3    2    3 1
     4    3    9 1
     5    3    4 1
     6    3   20 1
     7    4    5 1
     8    4    6 1
     9    4   19 1
    10    6    7 1
    11    6    8 1
    12    6   18 1
    13    8    9 1
    14    8   10 1
    15    8   23 1
    16   10   15 am
    17   10   11 1
    18   11   12 2
    19   11   24 1
    20   12   13 1
    21   12   25 1
    22   13   14 1
    23   13   17 1
    24   13   26 1
    25   14   15 am
    26   14   27 1
    27   15   16 2
    28   17   28 1
    29   17   29 1
    30   17   35 1
    31   18   30 1
    32   19   31 1
    33   20   21 1
    34   20   32 1
    35   20   33 1
    36   21   34 1
@<TRIPOS>MOLECULE
CHEMBL607878__5
   34    35     0     0     0
SMALL
USER_CHARGES

@<TRIPOS>ATOM
      1 C1          0.0180   -1.1779   -0.0044 C.1       1 <0>        -0.1550
      2 C2          0.0021   -0.0041    0.0020 C.1       1 <0>        -0.1935
      3 C3         -0.0179    1.4678    0.0101 C.3       1 <0>         0.2401
      4 C4         -0.6892    1.9756    1.3009 C.3       1 <0>         0.0571
      5 H1         -1.5268    2.6313    1.0627 H         1 <0>         0.0942
      6 C5          0.4285    2.7653    2.0245 C.3       1 <0>         0.0351
      7 H2          0.4111    2.5699    3.0967 H         1 <0>         0.0954
      8 C6          1.7099    2.1818    1.3766 C.3       1 <0>         0.3139
      9 O1          1.3271    1.9749   -0.0000 O.3       1 <0>        -0.3440
     10 N1          2.8152    3.1392    1.4664 N.am      1 <0>        -0.5378
     11 C7          2.7042    4.3376    0.7796 C.2       1 <0>         0.1463
     12 C8          3.6655    5.2425    0.8198 C.2       1 <0>        -0.2557
     13 C9          4.9001    4.9349    1.6410 C.3       1 <0>         0.3517
     14 N2          4.9374    3.6394    2.3393 N.am      1 <0>        -0.7132
     15 C10         3.8793    2.8133    2.2128 C.2       1 <0>         0.7160
     16 O2          3.8932    1.7418    2.7872 O.2       1 <0>        -0.5784
     17 N3          5.0489    5.9949    2.6472 N.3       1 <0>        -0.8594
     18 O3          0.3156    4.1654    1.7619 O.3       1 <0>        -0.5380
     19 O4         -1.1280    0.8767    2.1021 O.3       1 <0>        -0.5365
     20 C11        -0.7779    1.9843   -1.2132 C.3       1 <0>         0.0933
     21 O5         -0.2120    1.4209   -2.3983 O.3       1 <0>        -0.5557
     22 H3          0.0322   -2.2278   -0.0102 H         1 <0>         0.2194
     23 H4          1.9809    1.2361    1.8460 H         1 <0>         0.1350
     24 H5          1.8147    4.5353    0.1999 H         1 <0>         0.1597
     25 H6          3.5739    6.1748    0.2822 H         1 <0>         0.1538
     26 H7          5.7641    4.9835    0.9783 H         1 <0>         0.0441
     27 H8          5.7026    3.3878    2.8798 H         1 <0>         0.4252
     28 H9          5.8618    5.8350    3.2232 H         1 <0>         0.3414
     29 H10         5.0876    6.9041    2.2115 H         1 <0>         0.3556
     30 H11        -0.5128    4.5578    2.0699 H         1 <0>         0.3837
     31 H12        -1.5583    1.1389    2.9275 H         1 <0>         0.3865
     32 H13        -1.8262    1.6954   -1.1383 H         1 <0>         0.0678
     33 H14        -0.7025    3.0708   -1.2557 H         1 <0>         0.0674
     34 H15        -0.6454    1.7053   -3.2147 H         1 <0>         0.3843
@<TRIPOS>BOND
     1    1    2 3
     2    1   22 1
     3    2    3 1
     4    3    9 1
     5    3    4 1
     6    3   20 1
     7    4    5 1
     8    4    6 1
     9    4   19 1
    10    6    7 1
    11    6    8 1
    12    6   18 1
    13    8    9 1
    14    8   10 1
    15    8   23 1
    16   10   15 am
    17   10   11 1
    18   11   12 2
    19   11   24 1
    20   12   13 1
    21   12   25 1
    22   13   14 1
    23   13   17 1
    24   13   26 1
    25   14   15 am
    26   14   27 1
    27   15   16 2
    28   17   28 1
    29   17   29 1
    30   18   30 1
    31   19   31 1
    32   20   21 1
    33   20   32 1
    34   20   33 1
    35   21   34 1
@<TRIPOS>MOLECULE
CHEMBL607878__6
   35    36     0     0     0
SMALL
USER_CHARGES

@<TRIPOS>ATOM
      1 C1          0.0180   -1.1779   -0.0044 C.1       1 <0>        -0.1352
      2 C2          0.0021   -0.0041    0.0020 C.1       1 <0>        -0.2100
      3 C3         -0.0179    1.4678    0.0101 C.3       1 <0>         0.2461
      4 C4         -0.6892    1.9756    1.3009 C.3       1 <0>         0.0577
      5 H1         -1.5268    2.6313    1.0627 H         1 <0>         0.0996
      6 C5          0.4285    2.7653    2.0245 C.3       1 <0>         0.0337
      7 H2          0.4111    2.5699    3.0967 H         1 <0>         0.1011
      8 C6          1.7099    2.1818    1.3766 C.3       1 <0>         0.3062
      9 O1          1.3271    1.9749   -0.0000 O.3       1 <0>        -0.3452
     10 N1          2.8152    3.1392    1.4664 N.am      1 <0>        -0.5371
     11 C7          2.7042    4.3376    0.7796 C.2       1 <0>         0.2207
     12 C8          3.6655    5.2425    0.8198 C.2       1 <0>        -0.3437
     13 C9          4.9001    4.9349    1.6410 C.3       1 <0>         0.3088
     14 N2          4.9374    3.6394    2.3393 N.am      1 <0>        -0.7277
     15 C10         3.8793    2.8133    2.2128 C.2       1 <0>         0.7108
     16 O2          3.8932    1.7418    2.7872 O.2       1 <0>        -0.5243
     17 N3          6.0646    5.0004    0.7479 N.4       1 <0>        -0.6558
     18 O3          0.3156    4.1654    1.7619 O.3       1 <0>        -0.5506
     19 O4         -1.1280    0.8767    2.1021 O.3       1 <0>        -0.5337
     20 C11        -0.7779    1.9843   -1.2132 C.3       1 <0>         0.0920
     21 O5         -0.2120    1.4209   -2.3983 O.3       1 <0>        -0.5574
     22 H3          0.0322   -2.2278   -0.0102 H         1 <0>         0.2220
     23 H4          1.9809    1.2361    1.8460 H         1 <0>         0.1429
     24 H5          1.8147    4.5353    0.1999 H         1 <0>         0.1821
     25 H6          3.5739    6.1748    0.2822 H         1 <0>         0.1831
     26 H7          5.0105    5.7214    2.3876 H         1 <0>         0.1500
     27 H8          5.7026    3.3878    2.8798 H         1 <0>         0.4421
     28 H9          6.1315    5.9251    0.3497 H         1 <0>         0.4445
     29 H10         6.9025    4.7986    1.2724 H         1 <0>         0.4303
     30 H11        -0.5128    4.5578    2.0699 H         1 <0>         0.3956
     31 H12        -1.5583    1.1389    2.9275 H         1 <0>         0.3906
     32 H13        -1.8262    1.6954   -1.1383 H         1 <0>         0.0731
     33 H14        -0.7025    3.0708   -1.2557 H         1 <0>         0.0670
     34 H15        -0.6454    1.7053   -3.2147 H         1 <0>         0.3889
     35 H16         5.9595    4.3224    0.0080 H         1 <0>         0.4318
@<TRIPOS>BOND
     1    1    2 3
     2    1   22 1
     3    2    3 1
     4    3    9 1
     5    3    4 1
     6    3   20 1
     7    4    5 1
     8    4    6 1
     9    4   19 1
    10    6    7 1
    11    6    8 1
    12    6   18 1
    13    8    9 1
    14    8   10 1
    15    8   23 1
    16   10   15 am
    17   10   11 1
    18   11   12 2
    19   11   24 1
    20   12   13 1
    21   12   25 1
    22   13   14 1
    23   13   17 1
    24   13   26 1
    25   14   15 am
    26   14   27 1
    27   15   16 2
    28   17   28 1
    29   17   29 1
    30   17   35 1
    31   18   30 1
    32   19   31 1
    33   20   21 1
    34   20   32 1
    35   20   33 1
    36   21   34 1
@<TRIPOS>MOLECULE
CHEMBL607878__7
   34    35     0     0     0
SMALL
USER_CHARGES

@<TRIPOS>ATOM
      1 C1          0.0180   -1.1779   -0.0044 C.1       1 <0>        -0.1546
      2 C2          0.0021   -0.0041    0.0020 C.1       1 <0>        -0.1940
      3 C3         -0.0179    1.4678    0.0101 C.3       1 <0>         0.2402
      4 C4         -0.6892    1.9756    1.3009 C.3       1 <0>         0.0572
      5 H1         -1.5268    2.6313    1.0627 H         1 <0>         0.0945
      6 C5          0.4285    2.7653    2.0245 C.3       1 <0>         0.0346
      7 H2          0.4111    2.5699    3.0967 H         1 <0>         0.0952
      8 C6          1.7099    2.1818    1.3766 C.3       1 <0>         0.3137
      9 O1          1.3271    1.9749   -0.0000 O.3       1 <0>        -0.3436
     10 N1          2.8152    3.1392    1.4664 N.am      1 <0>        -0.5395
     11 C7          2.7042    4.3376    0.7796 C.2       1 <0>         0.1365
     12 C8          3.6655    5.2425    0.8198 C.2       1 <0>        -0.2467
     13 C9          4.9001    4.9349    1.6410 C.3       1 <0>         0.3346
     14 N2          4.9374    3.6394    2.3393 N.am      1 <0>        -0.7475
     15 C10         3.8793    2.8133    2.2128 C.2       1 <0>         0.7081
     16 O2          3.8932    1.7418    2.7872 O.2       1 <0>        -0.5801
     17 N3          6.0646    5.0004    0.7479 N.3       1 <0>        -0.8370
     18 O3          0.3156    4.1654    1.7619 O.3       1 <0>        -0.5388
     19 O4         -1.1280    0.8767    2.1021 O.3       1 <0>        -0.5363
     20 C11        -0.7779    1.9843   -1.2132 C.3       1 <0>         0.0933
     21 O5         -0.2120    1.4209   -2.3983 O.3       1 <0>        -0.5558
     22 H3          0.0322   -2.2278   -0.0102 H         1 <0>         0.2195
     23 H4          1.9809    1.2361    1.8460 H         1 <0>         0.1343
     24 H5          1.8147    4.5353    0.1999 H         1 <0>         0.1606
     25 H6          3.5739    6.1748    0.2822 H         1 <0>         0.1596
     26 H7          5.0105    5.7214    2.3876 H         1 <0>         0.0907
     27 H8          5.7026    3.3878    2.8798 H         1 <0>         0.4221
     28 H9          6.9170    4.8018    1.2499 H         1 <0>         0.3431
     29 H10         5.9536    4.3764   -0.0372 H         1 <0>         0.3455
     30 H11        -0.5128    4.5578    2.0699 H         1 <0>         0.3841
     31 H12        -1.5583    1.1389    2.9275 H         1 <0>         0.3865
     32 H13        -1.8262    1.6954   -1.1383 H         1 <0>         0.0679
     33 H14        -0.7025    3.0708   -1.2557 H         1 <0>         0.0675
     34 H15        -0.6454    1.7053   -3.2147 H         1 <0>         0.3847
@<TRIPOS>BOND
     1    1    2 3
     2    1   22 1
     3    2    3 1
     4    3    9 1
     5    3    4 1
     6    3   20 1
     7    4    5 1
     8    4    6 1
     9    4   19 1
    10    6    7 1
    11    6    8 1
    12    6   18 1
    13    8    9 1
    14    8   10 1
    15    8   23 1
    16   10   15 am
    17   10   11 1
    18   11   12 2
    19   11   24 1
    20   12   13 1
    21   12   25 1
    22   13   14 1
    23   13   17 1
    24   13   26 1
    25   14   15 am
    26   14   27 1
    27   15   16 2
    28   17   28 1
    29   17   29 1
    30   18   30 1
    31   19   31 1
    32   20   21 1
    33   20   32 1
    34   20   33 1
    35   21   34 1
@<TRIPOS>MOLECULE
CHEMBL121820
   56    59     0     0     0
SMALL
USER_CHARGES

@<TRIPOS>ATOM
      1 C1         -0.0184    1.5028    0.0103 C.3       1 <0>        -0.0745
      2 C2          0.0021   -0.0041    0.0020 C.2       1 <0>         0.0810
      3 C3          0.0081   -0.8159   -1.1155 C.2       1 <0>        -0.0937
      4 C4         -0.0013   -0.5737   -2.5019 C.2       1 <0>         0.0458
      5 C5          0.0097   -1.6311   -3.3564 C.2       1 <0>        -0.2280
      6 C6          0.0303   -2.9463   -2.8525 C.2       1 <0>         0.4010
      7 N1          0.0387   -3.1771   -1.5633 N.2       1 <0>        -0.2938
      8 N2          0.0284   -2.1175   -0.6508 N.pl3     1 <0>        -0.2586
      9 C7          0.0338   -2.0543    0.6930 C.2       1 <0>         0.2586
     10 N3          0.0235   -0.7987    1.0712 N.2       1 <0>        -0.4552
     11 C8          0.0539   -3.2423    1.6200 C.3       1 <0>        -0.0358
     12 C9          1.5030   -3.6252    1.9270 C.3       1 <0>        -0.1114
     13 C10         1.5234   -4.8313    2.8682 C.3       1 <0>        -0.1173
     14 C11         2.9725   -5.2142    3.1752 C.3       1 <0>        -0.1193
     15 C12         2.9929   -6.4203    4.1164 C.3       1 <0>        -0.1161
     16 C13         4.4420   -6.8033    4.4234 C.3       1 <0>        -0.1459
     17 C14         4.4624   -8.0093    5.3645 C.3       1 <0>         0.1469
     18 C15         5.8838   -8.3104    5.7646 C.ar      1 <0>        -0.1169
     19 C16         6.7118   -9.0056    4.9031 C.ar      1 <0>        -0.1138
     20 C17         8.0156   -9.2817    5.2701 C.ar      1 <0>        -0.1165
     21 C18         8.4916   -8.8624    6.4983 C.ar      1 <0>        -0.1204
     22 C19         7.6639   -8.1664    7.3593 C.ar      1 <0>        -0.1169
     23 C20         6.3613   -7.8865    6.9906 C.ar      1 <0>        -0.1114
     24 O1          3.9049   -9.1435    4.6976 O.3       1 <0>        -0.5530
     25 N4          0.0414   -4.0241   -3.7441 N.pl3     1 <0>        -0.4106
     26 C21         0.0560   -5.3555   -3.4142 C.2       1 <0>        -0.0319
     27 C22         0.0628   -6.0437   -4.5712 C.2       1 <0>        -0.0159
     28 N5          0.0527   -5.1630   -5.5830 N.2       1 <0>        -0.4686
     29 C23         0.0340   -3.9505   -5.1012 C.2       1 <0>         0.2072
     30 H1          1.0042    1.8801    0.0026 H         1 <0>         0.0802
     31 H2         -0.5455    1.8639   -0.8728 H         1 <0>         0.0760
     32 H3         -0.5286    1.8543    0.9071 H         1 <0>         0.0821
     33 H4         -0.0175    0.4373   -2.8814 H         1 <0>         0.1676
     34 H5          0.0023   -1.4624   -4.4231 H         1 <0>         0.1576
     35 H6         -0.4591   -2.9880    2.5476 H         1 <0>         0.1013
     36 H7         -0.4511   -4.0830    1.1443 H         1 <0>         0.0868
     37 H8          2.0159   -3.8795    0.9995 H         1 <0>         0.0601
     38 H9          2.0080   -2.7845    2.4028 H         1 <0>         0.0701
     39 H10         1.0105   -4.5770    3.7958 H         1 <0>         0.0671
     40 H11         1.0184   -5.6720    2.3924 H         1 <0>         0.0645
     41 H12         3.4854   -5.4685    2.2476 H         1 <0>         0.0596
     42 H13         3.4775   -4.3735    3.6510 H         1 <0>         0.0617
     43 H14         2.4800   -6.1661    5.0439 H         1 <0>         0.0634
     44 H15         2.4879   -7.2610    3.6406 H         1 <0>         0.0697
     45 H16         4.9549   -7.0575    3.4958 H         1 <0>         0.0663
     46 H17         4.9470   -5.9626    4.8991 H         1 <0>         0.0732
     47 H18         3.8741   -7.7857    6.2545 H         1 <0>         0.1069
     48 H19         6.3399   -9.3332    3.9436 H         1 <0>         0.1189
     49 H20         8.6623   -9.8255    4.5973 H         1 <0>         0.1234
     50 H21         9.5100   -9.0787    6.7852 H         1 <0>         0.1230
     51 H22         8.0356   -7.8390    8.3190 H         1 <0>         0.1240
     52 H23         5.7158   -7.3395    7.6618 H         1 <0>         0.1232
     53 H24         4.3790   -9.4000    3.8947 H         1 <0>         0.3729
     54 H25         0.0613   -5.7716   -2.4176 H         1 <0>         0.1849
     55 H26         0.0743   -7.1193   -4.6680 H         1 <0>         0.1825
     56 H27         0.0179   -3.0409   -5.6833 H         1 <0>         0.2177
@<TRIPOS>BOND
     1    1    2 1
     2    1   30 1
     3    1   31 1
     4    1   32 1
     5    2   10 1
     6    2    3 2
     7    3    8 1
     8    3    4 1
     9    4    5 2
    10    4   33 1
    11    5    6 1
    12    5   34 1
    13    6    7 2
    14    6   25 1
    15    7    8 1
    16    8    9 1
    17    9   10 2
    18    9   11 1
    19   11   12 1
    20   11   35 1
    21   11   36 1
    22   12   13 1
    23   12   37 1
    24   12   38 1
    25   13   14 1
    26   13   39 1
    27   13   40 1
    28   14   15 1
    29   14   41 1
    30   14   42 1
    31   15   16 1
    32   15   43 1
    33   15   44 1
    34   16   17 1
    35   16   45 1
    36   16   46 1
    37   17   18 1
    38   17   24 1
    39   17   47 1
    40   18   23 ar
    41   18   19 ar
    42   19   20 ar
    43   19   48 1
    44   20   21 ar
    45   20   49 1
    46   21   22 ar
    47   21   50 1
    48   22   23 ar
    49   22   51 1
    50   23   52 1
    51   24   53 1
    52   25   29 1
    53   25   26 1
    54   26   27 2
    55   26   54 1
    56   27   28 1
    57   27   55 1
    58   28   29 2
    59   29   56 1
@<TRIPOS>MOLECULE
CHEMBL121820__1
   56    59     0     0     0
SMALL
USER_CHARGES

@<TRIPOS>ATOM
      1 C1         -0.0184    1.5028    0.0103 C.3       1 <0>        -0.0745
      2 C2          0.0021   -0.0041    0.0020 C.2       1 <0>         0.0811
      3 C3          0.0081   -0.8159   -1.1155 C.2       1 <0>        -0.0937
      4 C4         -0.0013   -0.5737   -2.5019 C.2       1 <0>         0.0458
      5 C5          0.0097   -1.6311   -3.3564 C.2       1 <0>        -0.2280
      6 C6          0.0303   -2.9463   -2.8525 C.2       1 <0>         0.4010
      7 N1          0.0387   -3.1771   -1.5633 N.2       1 <0>        -0.2939
      8 N2          0.0284   -2.1175   -0.6508 N.pl3     1 <0>        -0.2587
      9 C7          0.0338   -2.0543    0.6930 C.2       1 <0>         0.2586
     10 N3          0.0235   -0.7987    1.0712 N.2       1 <0>        -0.4551
     11 C8          0.0539   -3.2423    1.6200 C.3       1 <0>        -0.0358
     12 C9          1.5030   -3.6252    1.9270 C.3       1 <0>        -0.1114
     13 C10         1.5234   -4.8313    2.8682 C.3       1 <0>        -0.1173
     14 C11         2.9725   -5.2142    3.1752 C.3       1 <0>        -0.1193
     15 C12         2.9929   -6.4203    4.1164 C.3       1 <0>        -0.1161
     16 C13         4.4420   -6.8033    4.4234 C.3       1 <0>        -0.1457
     17 C14         4.4624   -8.0093    5.3645 C.3       1 <0>         0.1469
     18 C15         5.8849   -8.4628    5.5693 C.ar      1 <0>        -0.1169
     19 C16         6.6675   -7.8662    6.5402 C.ar      1 <0>        -0.1138
     20 C17         7.9724   -8.2821    6.7280 C.ar      1 <0>        -0.1161
     21 C18         8.4944   -9.2949    5.9453 C.ar      1 <0>        -0.1208
     22 C19         7.7116   -9.8921    4.9751 C.ar      1 <0>        -0.1168
     23 C20         6.4054   -9.4791    4.7901 C.ar      1 <0>        -0.1122
     24 O1          3.8940   -7.6413    6.6229 O.3       1 <0>        -0.5531
     25 N4          0.0414   -4.0241   -3.7441 N.pl3     1 <0>        -0.4106
     26 C21         0.0560   -5.3555   -3.4142 C.2       1 <0>        -0.0320
     27 C22         0.0628   -6.0437   -4.5712 C.2       1 <0>        -0.0160
     28 N5          0.0527   -5.1630   -5.5830 N.2       1 <0>        -0.4686
     29 C23         0.0340   -3.9505   -5.1012 C.2       1 <0>         0.2073
     30 H1          1.0042    1.8801    0.0026 H         1 <0>         0.0802
     31 H2         -0.5455    1.8639   -0.8728 H         1 <0>         0.0760
     32 H3         -0.5286    1.8543    0.9071 H         1 <0>         0.0822
     33 H4         -0.0175    0.4373   -2.8814 H         1 <0>         0.1677
     34 H5          0.0023   -1.4624   -4.4231 H         1 <0>         0.1576
     35 H6         -0.4591   -2.9880    2.5476 H         1 <0>         0.1014
     36 H7         -0.4511   -4.0830    1.1443 H         1 <0>         0.0867
     37 H8          2.0159   -3.8795    0.9995 H         1 <0>         0.0601
     38 H9          2.0080   -2.7845    2.4028 H         1 <0>         0.0701
     39 H10         1.0105   -4.5770    3.7958 H         1 <0>         0.0676
     40 H11         1.0184   -5.6720    2.3924 H         1 <0>         0.0641
     41 H12         3.4854   -5.4685    2.2476 H         1 <0>         0.0595
     42 H13         3.4775   -4.3735    3.6510 H         1 <0>         0.0618
     43 H14         2.4800   -6.1661    5.0439 H         1 <0>         0.0706
     44 H15         2.4879   -7.2610    3.6406 H         1 <0>         0.0624
     45 H16         4.9549   -7.0575    3.4958 H         1 <0>         0.0726
     46 H17         4.9470   -5.9626    4.8991 H         1 <0>         0.0670
     47 H18         3.8816   -8.8214    4.9271 H         1 <0>         0.1071
     48 H19         6.2596   -7.0750    7.1517 H         1 <0>         0.1196
     49 H20         8.5840   -7.8156    7.4860 H         1 <0>         0.1235
     50 H21         9.5141   -9.6194    6.0916 H         1 <0>         0.1229
     51 H22         8.1196  -10.6831    4.3633 H         1 <0>         0.1238
     52 H23         5.7925   -9.9482    4.0346 H         1 <0>         0.1229
     53 H24         4.3610   -6.9223    7.0702 H         1 <0>         0.3731
     54 H25         0.0613   -5.7716   -2.4176 H         1 <0>         0.1849
     55 H26         0.0743   -7.1193   -4.6680 H         1 <0>         0.1824
     56 H27         0.0179   -3.0409   -5.6833 H         1 <0>         0.2177
@<TRIPOS>BOND
     1    1    2 1
     2    1   30 1
     3    1   31 1
     4    1   32 1
     5    2   10 1
     6    2    3 2
     7    3    8 1
     8    3    4 1
     9    4    5 2
    10    4   33 1
    11    5    6 1
    12    5   34 1
    13    6    7 2
    14    6   25 1
    15    7    8 1
    16    8    9 1
    17    9   10 2
    18    9   11 1
    19   11   12 1
    20   11   35 1
    21   11   36 1
    22   12   13 1
    23   12   37 1
    24   12   38 1
    25   13   14 1
    26   13   39 1
    27   13   40 1
    28   14   15 1
    29   14   41 1
    30   14   42 1
    31   15   16 1
    32   15   43 1
    33   15   44 1
    34   16   17 1
    35   16   45 1
    36   16   46 1
    37   17   18 1
    38   17   24 1
    39   17   47 1
    40   18   23 ar
    41   18   19 ar
    42   19   20 ar
    43   19   48 1
    44   20   21 ar
    45   20   49 1
    46   21   22 ar
    47   21   50 1
    48   22   23 ar
    49   22   51 1
    50   23   52 1
    51   24   53 1
    52   25   29 1
    53   25   26 1
    54   26   27 2
    55   26   54 1
    56   27   28 1
    57   27   55 1
    58   28   29 2
    59   29   56 1
@<TRIPOS>MOLECULE
CHEMBL328848
   45    48     0     0     0
SMALL
USER_CHARGES

@<TRIPOS>ATOM
      1 C1         -0.0187    1.5258    0.0104 C.3       1 <0>        -0.1711
      2 C2          0.0021   -0.0041    0.0020 C.3       1 <0>         0.1376
      3 N1         -1.3723   -0.5112    0.0124 N.pl3     1 <0>        -0.5795
      4 C3         -2.0242   -0.7562    1.2209 C.ar      1 <0>         0.3612
      5 C4         -3.1930   -0.0728    1.5495 C.ar      1 <0>         0.0913
      6 C5         -3.8445   -0.3880    2.7374 C.ar      1 <0>        -0.0861
      7 C6         -3.2864   -1.3507    3.5670 C.ar      1 <0>        -0.1548
      8 C7         -2.1085   -1.9632    3.1920 C.ar      1 <0>         0.1107
      9 N2         -1.5193   -1.6575    2.0516 N.ar      1 <0>        -0.4740
     10 N3         -3.6959    0.9504    0.7502 N.am      1 <0>        -0.5377
     11 C8         -3.7350    0.9787   -0.5738 C.2       1 <0>         0.5750
     12 O1         -4.2323    1.9586   -1.0940 O.2       1 <0>        -0.5222
     13 C9         -3.2298   -0.0695   -1.4658 C.ar      1 <0>        -0.1956
     14 C10        -2.0402   -0.7469   -1.1771 C.ar      1 <0>         0.4133
     15 N4         -1.5584   -1.6315   -2.0382 N.ar      1 <0>        -0.4952
     16 C11        -2.1937   -1.9342   -3.1535 C.ar      1 <0>         0.1605
     17 C12        -3.3988   -1.3376   -3.4761 C.ar      1 <0>        -0.1546
     18 C13        -3.9308   -0.3970   -2.6315 C.ar      1 <0>         0.0017
     19 C14        -4.1225   -1.7216   -4.7410 C.3       1 <0>        -0.0661
     20 C15        -5.0716   -2.8862   -4.4520 C.3       1 <0>        -0.0275
     21 C16        -5.7954   -3.2702   -5.7168 C.2       1 <0>         0.0539
     22 N5         -5.4411   -4.1472   -6.6227 N.2       1 <0>        -0.5156
     23 C17        -6.1867   -4.3749   -7.6855 C.2       1 <0>         0.0340
     24 C18        -7.3354   -3.6597   -7.7960 C.2       1 <0>        -0.2293
     25 S1         -7.2586   -2.6813   -6.3042 S.3       1 <0>         0.1014
     26 C19        -4.2396    2.1189    1.4468 C.3       1 <0>         0.0651
     27 H1          1.0039    1.9031    0.0027 H         1 <0>         0.0725
     28 H2         -0.5459    1.8868   -0.8726 H         1 <0>         0.0539
     29 H3         -0.5289    1.8773    0.9072 H         1 <0>         0.0537
     30 H4          0.5123   -0.3556   -0.8948 H         1 <0>         0.0837
     31 H5          0.5293   -0.3651    0.8851 H         1 <0>         0.0840
     32 H6         -4.7655    0.1064    3.0088 H         1 <0>         0.1472
     33 H7         -3.7687   -1.6170    4.4959 H         1 <0>         0.1476
     34 H8         -1.6624   -2.7026    3.8407 H         1 <0>         0.1667
     35 H9         -1.7648   -2.6611   -3.8273 H         1 <0>         0.1683
     36 H10        -4.8681    0.0851   -2.8672 H         1 <0>         0.1479
     37 H11        -4.6946   -0.8684   -5.1055 H         1 <0>         0.0836
     38 H12        -3.3976   -2.0227   -5.4972 H         1 <0>         0.0897
     39 H13        -4.4995   -3.7394   -4.0874 H         1 <0>         0.1013
     40 H14        -5.7966   -2.5851   -3.6957 H         1 <0>         0.0921
     41 H15        -5.8970   -5.0972   -8.4343 H         1 <0>         0.1734
     42 H16        -8.0886   -3.6796   -8.5697 H         1 <0>         0.1970
     43 H17        -3.4469    2.8508    1.6019 H         1 <0>         0.0676
     44 H18        -5.0324    2.5640    0.8456 H         1 <0>         0.0938
     45 H19        -4.6439    1.8114    2.4111 H         1 <0>         0.0800
@<TRIPOS>BOND
     1    1    2 1
     2    1   27 1
     3    1   28 1
     4    1   29 1
     5    2    3 1
     6    2   30 1
     7    2   31 1
     8    3   14 1
     9    3    4 1
    10    4    9 ar
    11    4    5 ar
    12    5    6 ar
    13    5   10 1
    14    6    7 ar
    15    6   32 1
    16    7    8 ar
    17    7   33 1
    18    8    9 ar
    19    8   34 1
    20   10   11 am
    21   10   26 1
    22   11   12 2
    23   11   13 1
    24   13   18 ar
    25   13   14 ar
    26   14   15 ar
    27   15   16 ar
    28   16   17 ar
    29   16   35 1
    30   17   18 ar
    31   17   19 1
    32   18   36 1
    33   19   20 1
    34   19   37 1
    35   19   38 1
    36   20   21 1
    37   20   39 1
    38   20   40 1
    39   21   25 1
    40   21   22 2
    41   22   23 1
    42   23   24 2
    43   23   41 1
    44   24   25 1
    45   24   42 1
    46   26   43 1
    47   26   44 1
    48   26   45 1
@<TRIPOS>MOLECULE
CHEMBL289038
   33    35     0     0     0
SMALL
USER_CHARGES

@<TRIPOS>ATOM
      1 C1         -0.0187    1.5258    0.0104 C.3       1 <0>        -0.1722
      2 C2          0.0021   -0.0041    0.0020 C.3       1 <0>         0.1353
      3 N1          0.6878   -0.4765   -1.2033 N.pl3     1 <0>        -0.5901
      4 C3         -0.0289   -0.7111   -2.3826 C.ar      1 <0>         0.0954
      5 C4         -1.0363   -1.6626   -2.4008 C.ar      1 <0>         0.1198
      6 N2         -1.6974   -1.9220   -3.5137 N.ar      1 <0>        -0.4765
      7 C5         -1.4296   -1.2974   -4.6442 C.ar      1 <0>         0.1171
      8 C6         -0.4509   -0.3251   -4.7046 C.ar      1 <0>        -0.1843
      9 C7          0.2600   -0.0054   -3.5493 C.ar      1 <0>         0.1778
     10 N3          1.1846    1.0282   -3.5718 N.am      1 <0>        -0.5417
     11 C8          2.3505    1.0635   -2.9420 C.2       1 <0>         0.5761
     12 O1          3.0350    2.0561   -3.0978 O.2       1 <0>        -0.5204
     13 C9          2.8866    0.0113   -2.0740 C.ar      1 <0>        -0.2047
     14 C10         2.0557   -0.6923   -1.1948 C.ar      1 <0>         0.4143
     15 N4          2.5762   -1.5816   -0.3617 N.ar      1 <0>        -0.5033
     16 C11         3.8643   -1.8644   -0.3620 C.ar      1 <0>         0.1537
     17 C12         4.7342   -1.2405   -1.2375 C.ar      1 <0>        -0.1923
     18 C13         4.2519   -0.2950   -2.1059 C.ar      1 <0>        -0.0021
     19 C14         0.8368    2.2028   -4.3753 C.3       1 <0>         0.0648
     20 H1          1.0039    1.9031    0.0027 H         1 <0>         0.0534
     21 H2         -0.5459    1.8868   -0.8726 H         1 <0>         0.0547
     22 H3         -0.5289    1.8773    0.9072 H         1 <0>         0.0722
     23 H4          0.5293   -0.3651    0.8851 H         1 <0>         0.0855
     24 H5         -1.0205   -0.3814    0.0098 H         1 <0>         0.0804
     25 H6         -1.2828   -2.1976   -1.4956 H         1 <0>         0.1652
     26 H7         -1.9838   -1.5505   -5.5359 H         1 <0>         0.1671
     27 H8         -0.2389    0.1807   -5.6350 H         1 <0>         0.1469
     28 H9          4.2467   -2.5962    0.3341 H         1 <0>         0.1681
     29 H10         5.7829   -1.4986   -1.2395 H         1 <0>         0.1487
     30 H11         4.9153    0.2072   -2.7944 H         1 <0>         0.1461
     31 H12         0.2956    2.9188   -3.7569 H         1 <0>         0.0684
     32 H13         1.7476    2.6659   -4.7550 H         1 <0>         0.0937
     33 H14         0.2085    1.8974   -5.2120 H         1 <0>         0.0828
@<TRIPOS>BOND
     1    1    2 1
     2    1   20 1
     3    1   21 1
     4    1   22 1
     5    2    3 1
     6    2   23 1
     7    2   24 1
     8    3   14 1
     9    3    4 1
    10    4    9 ar
    11    4    5 ar
    12    5    6 ar
    13    5   25 1
    14    6    7 ar
    15    7    8 ar
    16    7   26 1
    17    8    9 ar
    18    8   27 1
    19    9   10 1
    20   10   11 am
    21   10   19 1
    22   11   12 2
    23   11   13 1
    24   13   18 ar
    25   13   14 ar
    26   14   15 ar
    27   15   16 ar
    28   16   17 ar
    29   16   28 1
    30   17   18 ar
    31   17   29 1
    32   18   30 1
    33   19   31 1
    34   19   32 1
    35   19   33 1
@<TRIPOS>MOLECULE
CHEMBL101944
   48    51     0     0     0
SMALL
USER_CHARGES

@<TRIPOS>ATOM
      1 C1         -0.0187    1.5258    0.0104 C.3       1 <0>        -0.1711
      2 C2          0.0021   -0.0041    0.0020 C.3       1 <0>         0.1377
      3 N1         -1.3723   -0.5112    0.0124 N.pl3     1 <0>        -0.5795
      4 C3         -2.0242   -0.7562    1.2209 C.ar      1 <0>         0.3614
      5 C4         -3.1930   -0.0728    1.5495 C.ar      1 <0>         0.0911
      6 C5         -3.8445   -0.3880    2.7374 C.ar      1 <0>        -0.0862
      7 C6         -3.2864   -1.3507    3.5670 C.ar      1 <0>        -0.1549
      8 C7         -2.1085   -1.9632    3.1920 C.ar      1 <0>         0.1107
      9 N2         -1.5193   -1.6575    2.0516 N.ar      1 <0>        -0.4741
     10 N3         -3.6959    0.9504    0.7502 N.am      1 <0>        -0.5377
     11 C8         -3.7350    0.9787   -0.5738 C.2       1 <0>         0.5749
     12 O1         -4.2323    1.9586   -1.0940 O.2       1 <0>        -0.5228
     13 C9         -3.2298   -0.0695   -1.4658 C.ar      1 <0>        -0.1949
     14 C10        -2.0402   -0.7469   -1.1771 C.ar      1 <0>         0.4113
     15 N4         -1.5584   -1.6315   -2.0382 N.ar      1 <0>        -0.4952
     16 C11        -2.1937   -1.9342   -3.1535 C.ar      1 <0>         0.1569
     17 C12        -3.3988   -1.3376   -3.4761 C.ar      1 <0>        -0.1530
     18 C13        -3.9308   -0.3970   -2.6315 C.ar      1 <0>        -0.0001
     19 C14        -4.1225   -1.7216   -4.7410 C.3       1 <0>        -0.0677
     20 C15        -5.0716   -2.8862   -4.4520 C.3       1 <0>        -0.0723
     21 C16        -5.7954   -3.2702   -5.7168 C.ar      1 <0>        -0.1359
     22 C17        -7.0011   -2.6695   -6.0458 C.ar      1 <0>        -0.0728
     23 C18        -7.6314   -3.0540   -7.2191 C.ar      1 <0>        -0.1695
     24 C19        -7.0412   -4.0166   -8.0164 C.ar      1 <0>         0.0944
     25 N5         -5.8936   -4.5670   -7.6718 N.ar      1 <0>        -0.4829
     26 C20        -5.2630   -4.2213   -6.5663 C.ar      1 <0>         0.1023
     27 C21        -4.2396    2.1189    1.4468 C.3       1 <0>         0.0650
     28 H1          1.0039    1.9031    0.0027 H         1 <0>         0.0725
     29 H2         -0.5459    1.8868   -0.8726 H         1 <0>         0.0538
     30 H3         -0.5289    1.8773    0.9072 H         1 <0>         0.0536
     31 H4          0.5123   -0.3556   -0.8948 H         1 <0>         0.0835
     32 H5          0.5293   -0.3651    0.8851 H         1 <0>         0.0840
     33 H6         -4.7655    0.1064    3.0088 H         1 <0>         0.1471
     34 H7         -3.7687   -1.6170    4.4959 H         1 <0>         0.1476
     35 H8         -1.6624   -2.7026    3.8407 H         1 <0>         0.1668
     36 H9         -1.7648   -2.6611   -3.8273 H         1 <0>         0.1670
     37 H10        -4.8681    0.0851   -2.8672 H         1 <0>         0.1461
     38 H11        -4.6946   -0.8684   -5.1055 H         1 <0>         0.0804
     39 H12        -3.3976   -2.0227   -5.4972 H         1 <0>         0.0841
     40 H13        -4.4995   -3.7394   -4.0874 H         1 <0>         0.0806
     41 H14        -5.7966   -2.5851   -3.6957 H         1 <0>         0.0765
     42 H15        -7.4390   -1.9201   -5.4030 H         1 <0>         0.1338
     43 H16        -8.5718   -2.6074   -7.5064 H         1 <0>         0.1358
     44 H17        -7.5258   -4.3217   -8.9321 H         1 <0>         0.1559
     45 H18        -4.3220   -4.6903   -6.3196 H         1 <0>         0.1551
     46 H19        -3.4469    2.8508    1.6019 H         1 <0>         0.0677
     47 H20        -5.0324    2.5640    0.8456 H         1 <0>         0.0935
     48 H21        -4.6439    1.8114    2.4111 H         1 <0>         0.0800
@<TRIPOS>BOND
     1    1    2 1
     2    1   28 1
     3    1   29 1
     4    1   30 1
     5    2    3 1
     6    2   31 1
     7    2   32 1
     8    3   14 1
     9    3    4 1
    10    4    9 ar
    11    4    5 ar
    12    5    6 ar
    13    5   10 1
    14    6    7 ar
    15    6   33 1
    16    7    8 ar
    17    7   34 1
    18    8    9 ar
    19    8   35 1
    20   10   11 am
    21   10   27 1
    22   11   12 2
    23   11   13 1
    24   13   18 ar
    25   13   14 ar
    26   14   15 ar
    27   15   16 ar
    28   16   17 ar
    29   16   36 1
    30   17   18 ar
    31   17   19 1
    32   18   37 1
    33   19   20 1
    34   19   38 1
    35   19   39 1
    36   20   21 1
    37   20   40 1
    38   20   41 1
    39   21   26 ar
    40   21   22 ar
    41   22   23 ar
    42   22   42 1
    43   23   24 ar
    44   23   43 1
    45   24   25 ar
    46   24   44 1
    47   25   26 ar
    48   26   45 1
    49   27   46 1
    50   27   47 1
    51   27   48 1
@<TRIPOS>MOLECULE
CHEMBL86015
   47    50     0     0     0
SMALL
USER_CHARGES

@<TRIPOS>ATOM
      1 C1         -0.2555    1.4996   -0.1140 C.3       1 <0>        -0.1391
      2 C2          0.0021   -0.0041    0.0020 C.3       1 <0>        -0.0055
      3 C3          0.7074   -0.4901   -1.2379 C.ar      1 <0>        -0.0695
      4 C4          0.1742   -0.2497   -2.4670 C.ar      1 <0>        -0.0922
      5 C5          0.8119   -0.6912   -3.6245 C.ar      1 <0>        -0.1183
      6 C6          1.9864   -1.3762   -3.5598 C.ar      1 <0>        -0.1043
      7 C7          2.5674   -1.6433   -2.3087 C.ar      1 <0>        -0.0535
      8 C8          1.9218   -1.1887   -1.1315 C.ar      1 <0>        -0.0409
      9 C9          2.5061   -1.4508    0.1197 C.ar      1 <0>        -0.1137
     10 C10         3.6833   -2.1304    0.1839 C.ar      1 <0>        -0.1119
     11 C11         4.3214   -2.5718   -0.9740 C.ar      1 <0>        -0.1179
     12 C12         3.7787   -2.3480   -2.2019 C.ar      1 <0>        -0.1046
     13 C13        -1.3110   -0.7287    0.1496 C.2       1 <0>         0.2065
     14 C14        -1.5518   -1.4826    1.2619 C.2       1 <0>        -0.2925
     15 C15        -2.7841   -2.1495    1.3775 C.2       1 <0>         0.5314
     16 N1         -3.6877   -2.0208    0.3826 N.am      1 <0>        -0.6165
     17 C16        -3.3921   -1.2549   -0.7040 C.2       1 <0>         0.3753
     18 N2         -2.2355   -0.6281   -0.8020 N.2       1 <0>        -0.5307
     19 S1         -4.5772   -1.0931   -1.9979 S.3       1 <0>        -0.0134
     20 C17        -3.7655   -0.0074   -3.2032 C.3       1 <0>        -0.0639
     21 C18        -3.6125    1.4115   -2.6175 C.3       1 <0>        -0.1150
     22 C19        -3.8562    2.3496   -3.8256 C.3       1 <0>        -0.1238
     23 C20        -4.9870    1.6257   -4.5978 C.3       1 <0>        -0.1232
     24 C21        -4.6394    0.1288   -4.4624 C.3       1 <0>        -0.1053
     25 O1         -3.0320   -2.8319    2.3581 O.2       1 <0>        -0.5343
     26 H1          0.6943    2.0237   -0.2208 H         1 <0>         0.0676
     27 H2         -0.8785    1.6953   -0.9868 H         1 <0>         0.0692
     28 H3         -0.7656    1.8512    0.7828 H         1 <0>         0.0614
     29 H4          0.6251   -0.1997    0.8748 H         1 <0>         0.1020
     30 H5         -0.7573    0.2911   -2.5462 H         1 <0>         0.1328
     31 H6          0.3674   -0.4872   -4.5875 H         1 <0>         0.1225
     32 H7          2.4691   -1.7130   -4.4654 H         1 <0>         0.1260
     33 H8          2.0234   -1.1143    1.0253 H         1 <0>         0.1278
     34 H9          4.1301   -2.3305    1.1466 H         1 <0>         0.1237
     35 H10         5.2551   -3.1087   -0.8951 H         1 <0>         0.1233
     36 H11         4.2841   -2.6966   -3.0904 H         1 <0>         0.1268
     37 H12        -0.8077   -1.5656    2.0402 H         1 <0>         0.1556
     38 H13        -2.7880   -0.4098   -3.4690 H         1 <0>         0.1105
     39 H14        -4.3583    1.5866   -1.8421 H         1 <0>         0.0756
     40 H15        -2.6074    1.5540   -2.2205 H         1 <0>         0.0836
     41 H16        -4.1854    3.3332   -3.4907 H         1 <0>         0.0727
     42 H17        -2.9591    2.4297   -4.4396 H         1 <0>         0.0716
     43 H18        -5.9548    1.8353   -4.1422 H         1 <0>         0.0707
     44 H19        -4.9850    1.9245   -5.6461 H         1 <0>         0.0732
     45 H20        -4.0858   -0.2068   -5.3393 H         1 <0>         0.0853
     46 H21        -5.5513   -0.4575   -4.3492 H         1 <0>         0.0744
     47 H22        -4.5441   -2.4724    0.4414 H         1 <0>         0.4203
@<TRIPOS>BOND
     1    1    2 1
     2    1   26 1
     3    1   27 1
     4    1   28 1
     5    2    3 1
     6    2   29 1
     7    2   13 1
     8    3    8 ar
     9    3    4 ar
    10    4    5 ar
    11    4   30 1
    12    5    6 ar
    13    5   31 1
    14    6    7 ar
    15    6   32 1
    16    7   12 ar
    17    7    8 ar
    18    8    9 ar
    19    9   10 ar
    20    9   33 1
    21   10   11 ar
    22   10   34 1
    23   11   12 ar
    24   11   35 1
    25   12   36 1
    26   13   14 2
    27   13   18 1
    28   14   15 1
    29   14   37 1
    30   15   16 am
    31   15   25 2
    32   16   17 1
    33   16   47 1
    34   17   19 1
    35   17   18 2
    36   19   20 1
    37   20   24 1
    38   20   21 1
    39   20   38 1
    40   21   22 1
    41   21   39 1
    42   21   40 1
    43   22   23 1
    44   22   41 1
    45   22   42 1
    46   23   24 1
    47   23   43 1
    48   23   44 1
    49   24   45 1
    50   24   46 1
@<TRIPOS>MOLECULE
CHEMBL86015__1
   47    50     0     0     0
SMALL
USER_CHARGES

@<TRIPOS>ATOM
      1 C1         -0.2370    1.4450   -0.4269 C.3       1 <0>        -0.1496
      2 C2          0.0021   -0.0041    0.0020 C.3       1 <0>        -0.0208
      3 C3          0.7670   -0.7274   -1.0762 C.ar      1 <0>        -0.0735
      4 C4          0.3025   -0.7367   -2.3558 C.ar      1 <0>        -0.1110
      5 C5          0.9960   -1.4000   -3.3659 C.ar      1 <0>        -0.1140
      6 C6          2.1580   -2.0585   -3.1026 C.ar      1 <0>        -0.0970
      7 C7          2.6686   -2.0710   -1.7937 C.ar      1 <0>        -0.0489
      8 C8          1.9664   -1.3909   -0.7673 C.ar      1 <0>        -0.0387
      9 C9          2.4804   -1.3985    0.5408 C.ar      1 <0>        -0.1135
     10 C10         3.6451   -2.0518    0.8028 C.ar      1 <0>        -0.1076
     11 C11         4.3390   -2.7151   -0.2078 C.ar      1 <0>        -0.1128
     12 C12         3.8648   -2.7404   -1.4833 C.ar      1 <0>        -0.1044
     13 C13        -1.3227   -0.6876    0.2228 C.2       1 <0>         0.1804
     14 C14        -1.5825   -1.3105    1.3921 C.2       1 <0>        -0.2750
     15 C15        -2.8396   -1.9440    1.5680 C.2       1 <0>         0.5143
     16 N1         -3.7402   -1.9126    0.5765 N.2       1 <0>        -0.5797
     17 C16        -3.4695   -1.2996   -0.5588 C.2       1 <0>         0.3991
     18 N2         -2.2751   -0.6787   -0.7554 N.pl3     1 <0>        -0.5955
     19 S1         -4.6777   -1.2789   -1.8412 S.3       1 <0>        -0.0243
     20 C17        -6.0747   -2.2017   -1.1430 C.3       1 <0>        -0.0584
     21 C18        -5.6943   -3.6869   -0.9720 C.3       1 <0>        -0.1150
     22 C19        -6.9929   -4.4545   -1.3235 C.3       1 <0>        -0.1237
     23 C20        -7.5732   -3.6255   -2.4961 C.3       1 <0>        -0.1228
     24 C21        -7.2693   -2.1626   -2.1120 C.3       1 <0>        -0.1044
     25 O1         -3.0991   -2.5147    2.6165 O.2       1 <0>        -0.5099
     26 H1          0.7213    1.9394   -0.5866 H         1 <0>         0.0793
     27 H2         -0.8121    1.4598   -1.3526 H         1 <0>         0.0586
     28 H3         -0.7902    1.9682    0.3530 H         1 <0>         0.0721
     29 H4          0.5773   -0.0188    0.9278 H         1 <0>         0.1197
     30 H5         -0.6175   -0.2225   -2.5914 H         1 <0>         0.1125
     31 H6          0.6056   -1.3920   -4.3729 H         1 <0>         0.1280
     32 H7          2.6844   -2.5689   -3.8955 H         1 <0>         0.1308
     33 H8          1.9540   -0.8883    1.3339 H         1 <0>         0.1293
     34 H9          4.0378   -2.0561    1.8088 H         1 <0>         0.1266
     35 H10         5.2613   -3.2256    0.0270 H         1 <0>         0.1261
     36 H11         4.4129   -3.2591   -2.2559 H         1 <0>         0.1297
     37 H12        -0.8449   -1.3266    2.1809 H         1 <0>         0.1552
     38 H13        -6.3600   -1.7755   -0.1812 H         1 <0>         0.1115
     39 H14        -4.8933   -3.9572   -1.6600 H         1 <0>         0.0733
     40 H15        -5.3985   -3.8889    0.0575 H         1 <0>         0.0867
     41 H16        -6.7658   -5.4712   -1.6443 H         1 <0>         0.0725
     42 H17        -7.6796   -4.4597   -0.4771 H         1 <0>         0.0719
     43 H18        -7.0756   -3.8859   -3.4303 H         1 <0>         0.0703
     44 H19        -8.6486   -3.7827   -2.5789 H         1 <0>         0.0732
     45 H20        -8.1346   -1.7183   -1.6203 H         1 <0>         0.0857
     46 H21        -7.0097   -1.5892   -3.0019 H         1 <0>         0.0742
     47 H22        -2.0976   -0.2302   -1.5970 H         1 <0>         0.4196
@<TRIPOS>BOND
     1    1    2 1
     2    1   26 1
     3    1   27 1
     4    1   28 1
     5    2    3 1
     6    2   29 1
     7    2   13 1
     8    3    8 ar
     9    3    4 ar
    10    4    5 ar
    11    4   30 1
    12    5    6 ar
    13    5   31 1
    14    6    7 ar
    15    6   32 1
    16    7   12 ar
    17    7    8 ar
    18    8    9 ar
    19    9   10 ar
    20    9   33 1
    21   10   11 ar
    22   10   34 1
    23   11   12 ar
    24   11   35 1
    25   12   36 1
    26   13   14 2
    27   13   18 1
    28   14   15 1
    29   14   37 1
    30   15   16 1
    31   15   25 2
    32   16   17 2
    33   17   19 1
    34   17   18 1
    35   18   47 1
    36   19   20 1
    37   20   24 1
    38   20   21 1
    39   20   38 1
    40   21   22 1
    41   21   39 1
    42   21   40 1
    43   22   23 1
    44   22   41 1
    45   22   42 1
    46   23   24 1
    47   23   43 1
    48   23   44 1
    49   24   45 1
    50   24   46 1
@<TRIPOS>MOLECULE
CHEMBL86015__2
   47    50     0     0     0
SMALL
USER_CHARGES

@<TRIPOS>ATOM
      1 C1          0.1452    1.5948   -0.0830 C.3       1 <0>        -0.1395
      2 C2          0.0525    0.0676   -0.0852 C.3       1 <0>        -0.0048
      3 C3         -1.3944   -0.3477   -0.1573 C.ar      1 <0>        -0.0731
      4 C4         -2.1946    0.1298   -1.1496 C.ar      1 <0>        -0.0900
      5 C5         -3.5346   -0.2429   -1.2325 C.ar      1 <0>        -0.1162
      6 C6         -4.0826   -1.0951   -0.3233 C.ar      1 <0>        -0.1051
      7 C7         -3.2877   -1.6087    0.7151 C.ar      1 <0>        -0.0541
      8 C8         -1.9229   -1.2344    0.7958 C.ar      1 <0>        -0.0405
      9 C9         -1.1264   -1.7529    1.8313 C.ar      1 <0>        -0.1138
     10 C10        -1.6729   -2.6095    2.7366 C.ar      1 <0>        -0.1124
     11 C11        -3.0133   -2.9826    2.6535 C.ar      1 <0>        -0.1189
     12 C12        -3.8181   -2.4903    1.6726 C.ar      1 <0>        -0.1041
     13 C13         0.7921   -0.4788   -1.2791 C.2       1 <0>         0.2070
     14 C14         1.7697   -1.4155   -1.1047 C.2       1 <0>        -0.2908
     15 C15         2.4461   -1.9107   -2.2333 C.2       1 <0>         0.5300
     16 N1          2.1044   -1.4416   -3.4524 N.am      1 <0>        -0.6388
     17 C16         1.1206   -0.5067   -3.5656 C.2       1 <0>         0.3672
     18 N2          0.4873   -0.0514   -2.5017 N.2       1 <0>        -0.5043
     19 S1          0.6817    0.1002   -5.1605 S.3       1 <0>         0.0330
     20 C17         1.7325   -0.8478   -6.2952 C.3       1 <0>        -0.1133
     21 C18         3.1912   -0.3544   -6.2014 C.3       1 <0>        -0.1311
     22 C19         3.7136   -0.4345   -7.6574 C.3       1 <0>        -0.1205
     23 C20         2.4835    0.0104   -8.4869 C.3       1 <0>        -0.1238
     24 C21         1.2826   -0.6159   -7.7483 C.3       1 <0>        -0.0977
     25 O1          3.3253   -2.7480   -2.1134 O.2       1 <0>        -0.5353
     26 H1          1.1917    1.8952   -0.0308 H         1 <0>         0.0604
     27 H2         -0.3003    1.9871   -0.9971 H         1 <0>         0.0726
     28 H3         -0.3898    1.9900    0.7806 H         1 <0>         0.0673
     29 H4          0.4980   -0.3248    0.8290 H         1 <0>         0.1027
     30 H5         -1.7848    0.8080   -1.8834 H         1 <0>         0.1354
     31 H6         -4.1478    0.1505   -2.0298 H         1 <0>         0.1242
     32 H7         -5.1230   -1.3746   -0.3997 H         1 <0>         0.1263
     33 H8         -0.0861   -1.4733    1.9079 H         1 <0>         0.1275
     34 H9         -1.0586   -3.0064    3.5313 H         1 <0>         0.1234
     35 H10        -3.4219   -3.6643    3.3847 H         1 <0>         0.1230
     36 H11        -4.8551   -2.7877    1.6211 H         1 <0>         0.1267
     37 H12         2.0198   -1.7701   -0.1157 H         1 <0>         0.1572
     38 H13         1.6804   -1.9093   -6.0531 H         1 <0>         0.1013
     39 H14         3.2236    0.6736   -5.8405 H         1 <0>         0.0890
     40 H15         3.7735   -1.0068   -5.5508 H         1 <0>         0.0710
     41 H16         4.5482    0.2505   -7.8065 H         1 <0>         0.0776
     42 H17         4.0005   -1.4554   -7.9092 H         1 <0>         0.0737
     43 H18         2.4017    1.0973   -8.4950 H         1 <0>         0.0742
     44 H19         2.5493   -0.3758   -9.5040 H         1 <0>         0.0768
     45 H20         1.0129   -1.5650   -8.2116 H         1 <0>         0.0876
     46 H21         0.4328    0.0663   -7.7717 H         1 <0>         0.0808
     47 H22         2.5581   -1.7691   -4.2447 H         1 <0>         0.4120
@<TRIPOS>BOND
     1    1    2 1
     2    1   26 1
     3    1   27 1
     4    1   28 1
     5    2    3 1
     6    2   29 1
     7    2   13 1
     8    3    8 ar
     9    3    4 ar
    10    4    5 ar
    11    4   30 1
    12    5    6 ar
    13    5   31 1
    14    6    7 ar
    15    6   32 1
    16    7   12 ar
    17    7    8 ar
    18    8    9 ar
    19    9   10 ar
    20    9   33 1
    21   10   11 ar
    22   10   34 1
    23   11   12 ar
    24   11   35 1
    25   12   36 1
    26   13   14 2
    27   13   18 1
    28   14   15 1
    29   14   37 1
    30   15   16 am
    31   15   25 2
    32   16   17 1
    33   16   47 1
    34   17   19 1
    35   17   18 2
    36   19   20 1
    37   20   24 1
    38   20   21 1
    39   20   38 1
    40   21   22 1
    41   21   39 1
    42   21   40 1
    43   22   23 1
    44   22   41 1
    45   22   42 1
    46   23   24 1
    47   23   43 1
    48   23   44 1
    49   24   45 1
    50   24   46 1
@<TRIPOS>MOLECULE
CHEMBL86015__3
   47    50     0     0     0
SMALL
USER_CHARGES

@<TRIPOS>ATOM
      1 C1         -0.0358    1.5241   -0.0628 C.3       1 <0>        -0.1496
      2 C2          0.0021   -0.0041    0.0020 C.3       1 <0>        -0.0208
      3 C3         -1.4022   -0.5365    0.1262 C.ar      1 <0>        -0.0736
      4 C4         -2.3546   -0.1713   -0.7752 C.ar      1 <0>        -0.1110
      5 C5         -3.6582   -0.6533   -0.6766 C.ar      1 <0>        -0.1141
      6 C6         -4.0174   -1.5031    0.3244 C.ar      1 <0>        -0.0970
      7 C7         -3.0616   -1.9025    1.2736 C.ar      1 <0>        -0.0490
      8 C8         -1.7339   -1.4171    1.1696 C.ar      1 <0>        -0.0388
      9 C9         -0.7765   -1.8213    2.1159 C.ar      1 <0>        -0.1135
     10 C10        -1.1342   -2.6755    3.1130 C.ar      1 <0>        -0.1076
     11 C11        -2.4382   -3.1580    3.2114 C.ar      1 <0>        -0.1128
     12 C12        -3.3950   -2.7780    2.3213 C.ar      1 <0>        -0.1045
     13 C13         0.6350   -0.5446   -1.2543 C.2       1 <0>         0.1804
     14 C14         1.6778   -1.3989   -1.1797 C.2       1 <0>        -0.2749
     15 C15         2.2504   -1.8896   -2.3812 C.2       1 <0>         0.5142
     16 N1          1.7488   -1.4987   -3.5605 N.2       1 <0>        -0.5797
     17 C16         0.7300   -0.6638   -3.6146 C.2       1 <0>         0.3991
     18 N2          0.1563   -0.1801   -2.4798 N.pl3     1 <0>        -0.5954
     19 S1          0.0967   -0.1708   -5.1832 S.3       1 <0>        -0.0242
     20 C17         1.1438   -1.0501   -6.3753 C.3       1 <0>        -0.0586
     21 C18         2.5813   -0.4924   -6.3280 C.3       1 <0>        -0.1147
     22 C19         3.0494   -0.5233   -7.8042 C.3       1 <0>        -0.1238
     23 C20         1.7691   -0.1206   -8.5772 C.3       1 <0>        -0.1228
     24 C21         0.6274   -0.8137   -7.8054 C.3       1 <0>        -0.1045
     25 O1          3.1950   -2.6633   -2.3410 O.2       1 <0>        -0.5100
     26 H1          0.9799    1.9092   -0.1526 H         1 <0>         0.0721
     27 H2         -0.6207    1.8367   -0.9278 H         1 <0>         0.0586
     28 H3         -0.4936    1.9151    0.8459 H         1 <0>         0.0793
     29 H4          0.5870   -0.3167    0.8670 H         1 <0>         0.1197
     30 H5         -2.0960    0.5024   -1.5787 H         1 <0>         0.1127
     31 H6         -4.3948   -0.3478   -1.4049 H         1 <0>         0.1281
     32 H7         -5.0318   -1.8681    0.3888 H         1 <0>         0.1308
     33 H8          0.2379   -1.4562    2.0517 H         1 <0>         0.1293
     34 H9         -0.3966   -2.9846    3.8388 H         1 <0>         0.1266
     35 H10        -2.6957   -3.8352    4.0124 H         1 <0>         0.1261
     36 H11        -4.4015   -3.1593    2.4106 H         1 <0>         0.1297
     37 H12         2.0700   -1.7034   -0.2206 H         1 <0>         0.1552
     38 H13         1.1488   -2.1169   -6.1517 H         1 <0>         0.1113
     39 H14         2.5818    0.5296   -5.9490 H         1 <0>         0.0735
     40 H15         3.2174   -1.1288   -5.7127 H         1 <0>         0.0868
     41 H16         3.8461    0.2015   -7.9720 H         1 <0>         0.0726
     42 H17         3.3719   -1.5256   -8.0863 H         1 <0>         0.0718
     43 H18         1.6384    0.9614   -8.5614 H         1 <0>         0.0704
     44 H19         1.8124   -0.4856   -9.6034 H         1 <0>         0.0731
     45 H20         0.3826   -1.7658   -8.2761 H         1 <0>         0.0856
     46 H21        -0.2525   -0.1706   -7.7831 H         1 <0>         0.0742
     47 H22        -0.5950    0.4304   -2.5419 H         1 <0>         0.4197
@<TRIPOS>BOND
     1    1    2 1
     2    1   26 1
     3    1   27 1
     4    1   28 1
     5    2    3 1
     6    2   29 1
     7    2   13 1
     8    3    8 ar
     9    3    4 ar
    10    4    5 ar
    11    4   30 1
    12    5    6 ar
    13    5   31 1
    14    6    7 ar
    15    6   32 1
    16    7   12 ar
    17    7    8 ar
    18    8    9 ar
    19    9   10 ar
    20    9   33 1
    21   10   11 ar
    22   10   34 1
    23   11   12 ar
    24   11   35 1
    25   12   36 1
    26   13   14 2
    27   13   18 1
    28   14   15 1
    29   14   37 1
    30   15   16 1
    31   15   25 2
    32   16   17 2
    33   17   19 1
    34   17   18 1
    35   18   47 1
    36   19   20 1
    37   20   24 1
    38   20   21 1
    39   20   38 1
    40   21   22 1
    41   21   39 1
    42   21   40 1
    43   22   23 1
    44   22   41 1
    45   22   42 1
    46   23   24 1
    47   23   43 1
    48   23   44 1
    49   24   45 1
    50   24   46 1
@<TRIPOS>MOLECULE
CHEMBL335193
   28    29     0     0     0
SMALL
USER_CHARGES

@<TRIPOS>ATOM
      1 C1         -0.0164    1.3603    0.0095 C.2       1 <0>         0.1656
      2 C2          1.1568    2.0383    0.0020 C.2       1 <0>        -0.0812
      3 C3          2.3661    1.3106   -0.0135 C.2       1 <0>         0.4943
      4 N1          2.3335   -0.0154   -0.0203 N.2       1 <0>        -0.5905
      5 C4          1.1725   -0.6678   -0.0127 C.2       1 <0>         0.6515
      6 O1          1.1701   -1.8878   -0.0188 O.2       1 <0>        -0.5014
      7 N2          0.0021   -0.0041    0.0020 N.am      1 <0>        -0.5074
      8 C5         -1.2587   -0.7501    0.0105 C.3       1 <0>         0.1779
      9 H1         -2.1131   -0.0791    0.0988 H         1 <0>         0.1349
     10 C6         -1.2697   -1.8313    1.1270 C.3       1 <0>        -0.1533
     11 C7         -2.2734   -2.9325    0.7883 C.3       1 <0>        -0.1171
     12 C8         -2.4440   -3.1636   -0.7259 C.3       1 <0>        -0.0279
     13 H2         -3.4876   -3.0460   -1.0179 H         1 <0>         0.1095
     14 S1         -1.4075   -1.8377   -1.4746 S.3       1 <0>        -0.2533
     15 C9         -1.9270   -4.5479   -1.1225 C.3       1 <0>         0.0906
     16 O2         -2.5787   -5.5443   -0.3322 O.3       1 <0>        -0.5706
     17 N3          3.5724    1.9732   -0.0219 N.pl3     1 <0>        -0.8043
     18 F1          1.1688    3.3892    0.0087 F         1 <0>        -0.1194
     19 H3         -0.9554    1.8938    0.0258 H         1 <0>         0.1881
     20 H4         -0.2743   -2.2661    1.2178 H         1 <0>         0.1148
     21 H5         -1.5477   -1.3689    2.0741 H         1 <0>         0.0845
     22 H6         -1.9398   -3.8628    1.2481 H         1 <0>         0.0951
     23 H7         -3.2415   -2.6652    1.2120 H         1 <0>         0.0749
     24 H8         -2.1371   -4.7259   -2.1772 H         1 <0>         0.0536
     25 H9         -0.8513   -4.5962   -0.9533 H         1 <0>         0.0647
     26 H10        -2.2990   -6.4485   -0.5303 H         1 <0>         0.3865
     27 H11         3.5931    2.9429   -0.0172 H         1 <0>         0.4199
     28 H12         4.4018    1.4704   -0.0325 H         1 <0>         0.4198
@<TRIPOS>BOND
     1    1    7 1
     2    1    2 2
     3    1   19 1
     4    2    3 1
     5    2   18 1
     6    3    4 2
     7    3   17 1
     8    4    5 1
     9    5    6 2
    10    5    7 am
    11    7    8 1
    12    8    9 1
    13    8   14 1
    14    8   10 1
    15   10   11 1
    16   10   20 1
    17   10   21 1
    18   11   12 1
    19   11   22 1
    20   11   23 1
    21   12   13 1
    22   12   14 1
    23   12   15 1
    24   15   16 1
    25   15   24 1
    26   15   25 1
    27   16   26 1
    28   17   27 1
    29   17   28 1
@<TRIPOS>MOLECULE
CHEMBL236161
   44    46     0     0     0
SMALL
USER_CHARGES

@<TRIPOS>ATOM
      1 C1         -0.0184    1.5028    0.0103 C.3       1 <0>        -0.0926
      2 C2          0.0021   -0.0041    0.0020 C.2       1 <0>        -0.2510
      3 C3         -1.1641   -0.7136    0.0036 C.2       1 <0>         0.1902
      4 N1         -1.1365   -2.0438   -0.0042 N.2       1 <0>        -0.5165
      5 C4          0.0041   -2.7065   -0.0136 C.2       1 <0>         0.3665
      6 N2          1.1983   -2.0519   -0.0152 N.am      1 <0>        -0.6157
      7 H1          2.0284   -2.5536   -0.0221 H         1 <0>         0.4200
      8 C5          1.2225   -0.7019   -0.0134 C.2       1 <0>         0.5342
      9 O1          2.2832   -0.0991   -0.0203 O.2       1 <0>        -0.5304
     10 S1         -0.0179   -4.4683   -0.0237 S.3       1 <0>        -0.0197
     11 C6         -1.7833   -4.8852   -0.0175 C.3       1 <0>        -0.0658
     12 C7         -2.4167   -4.4823    1.3302 C.3       1 <0>        -0.1180
     13 C8         -3.4395   -5.6085    1.6211 C.3       1 <0>        -0.1226
     14 C9         -2.7040   -6.8760    1.1196 C.3       1 <0>        -0.1229
     15 C10        -1.9660   -6.4072   -0.1514 C.3       1 <0>        -0.1053
     16 C11        -2.4854    0.0111    0.0147 C.3       1 <0>        -0.0010
     17 C12        -3.2731   -0.3836    1.2656 C.3       1 <0>        -0.1447
     18 C13        -3.2737   -0.3626   -1.2140 C.ar      1 <0>        -0.1557
     19 C14        -3.6242   -1.6830   -1.4370 C.ar      1 <0>         0.1498
     20 C15        -4.3485   -2.0253   -2.5665 C.ar      1 <0>        -0.1718
     21 C16        -4.7215   -1.0491   -3.4709 C.ar      1 <0>        -0.0590
     22 C17        -4.3718    0.2695   -3.2496 C.ar      1 <0>        -0.1674
     23 C18        -3.6528    0.6150   -2.1177 C.ar      1 <0>         0.1354
     24 F1         -3.3163    1.9049   -1.8984 F         1 <0>        -0.1278
     25 F2         -3.2592   -2.6375   -0.5533 F         1 <0>        -0.0964
     26 H2          1.0042    1.8801    0.0026 H         1 <0>         0.0789
     27 H3         -0.5455    1.8639   -0.8728 H         1 <0>         0.0703
     28 H4         -0.5286    1.8543    0.9071 H         1 <0>         0.0708
     29 H5         -2.2901   -4.3749   -0.8365 H         1 <0>         0.1182
     30 H6         -1.6582   -4.4445    2.1121 H         1 <0>         0.0714
     31 H7         -2.9228   -3.5209    1.2416 H         1 <0>         0.0926
     32 H8         -3.6442   -5.6779    2.6894 H         1 <0>         0.0708
     33 H9         -4.3601   -5.4486    1.0598 H         1 <0>         0.0703
     34 H10        -1.9919   -7.2248    1.8675 H         1 <0>         0.0697
     35 H11        -3.4197   -7.6616    0.8773 H         1 <0>         0.0718
     36 H12        -2.5621   -6.6354   -1.0349 H         1 <0>         0.0834
     37 H13        -0.9938   -6.8953   -0.2201 H         1 <0>         0.0728
     38 H14        -2.3097    1.0869    0.0204 H         1 <0>         0.1108
     39 H15        -3.4488   -1.4593    1.2599 H         1 <0>         0.0760
     40 H16        -2.7029   -0.1132    2.1544 H         1 <0>         0.0645
     41 H17        -4.2287    0.1406    1.2737 H         1 <0>         0.0666
     42 H18        -4.6217   -3.0555   -2.7408 H         1 <0>         0.1420
     43 H19        -5.2865   -1.3170   -4.3516 H         1 <0>         0.1436
     44 H20        -4.6632    1.0314   -3.9574 H         1 <0>         0.1435
@<TRIPOS>BOND
     1    1    2 1
     2    1   26 1
     3    1   27 1
     4    1   28 1
     5    2    8 1
     6    2    3 2
     7    3    4 1
     8    3   16 1
     9    4    5 2
    10    5    6 1
    11    5   10 1
    12    6    7 1
    13    6    8 am
    14    8    9 2
    15   10   11 1
    16   11   15 1
    17   11   12 1
    18   11   29 1
    19   12   13 1
    20   12   30 1
    21   12   31 1
    22   13   14 1
    23   13   32 1
    24   13   33 1
    25   14   15 1
    26   14   34 1
    27   14   35 1
    28   15   36 1
    29   15   37 1
    30   16   17 1
    31   16   18 1
    32   16   38 1
    33   17   39 1
    34   17   40 1
    35   17   41 1
    36   18   23 ar
    37   18   19 ar
    38   19   20 ar
    39   19   25 1
    40   20   21 ar
    41   20   42 1
    42   21   22 ar
    43   21   43 1
    44   22   23 ar
    45   22   44 1
    46   23   24 1
@<TRIPOS>MOLECULE
CHEMBL236161__1
   44    46     0     0     0
SMALL
USER_CHARGES

@<TRIPOS>ATOM
      1 C1          0.4004    1.1398   -0.1528 C.3       1 <0>        -0.0961
      2 C2         -0.5110    1.5745   -1.2714 C.2       1 <0>        -0.2337
      3 C3         -0.8497    2.8736   -1.4145 C.2       1 <0>         0.1601
      4 N1         -1.6772    3.2395   -2.4369 N.pl3     1 <0>        -0.5947
      5 C4         -2.1563    2.3058   -3.3026 C.2       1 <0>         0.3967
      6 N2         -1.8360    1.0330   -3.1778 N.2       1 <0>        -0.5814
      7 H1         -1.9253    4.1709   -2.5466 H         1 <0>         0.4235
      8 C5         -1.0222    0.6261   -2.1943 C.2       1 <0>         0.5186
      9 O1         -0.7265   -0.5546   -2.0899 O.2       1 <0>        -0.5068
     10 S1         -3.2235    2.8059   -4.6124 S.3       1 <0>        -0.0233
     11 C6         -3.5994    1.2613   -5.4862 C.3       1 <0>        -0.0593
     12 C7         -2.3311    0.7258   -6.1822 C.3       1 <0>        -0.1147
     13 C8         -2.8511    0.1321   -7.5150 C.3       1 <0>        -0.1236
     14 C9         -3.9569    1.1352   -7.9275 C.3       1 <0>        -0.1227
     15 C10        -4.6331    1.5216   -6.5959 C.3       1 <0>        -0.1044
     16 C11        -0.3204    3.9086   -0.4556 C.3       1 <0>        -0.0154
     17 C12        -1.4552    4.8474   -0.0409 C.3       1 <0>        -0.1633
     18 C13         0.7697    4.7040   -1.1264 C.ar      1 <0>        -0.1557
     19 C14         0.4639    5.5445   -2.1829 C.ar      1 <0>         0.1287
     20 C15         1.4664    6.2748   -2.7986 C.ar      1 <0>        -0.1529
     21 C16         2.7719    6.1648   -2.3587 C.ar      1 <0>        -0.0568
     22 C17         3.0786    5.3256   -1.3042 C.ar      1 <0>        -0.1542
     23 C18         2.0768    4.5990   -0.6830 C.ar      1 <0>         0.1418
     24 F1          2.3758    3.7834    0.3516 F         1 <0>        -0.1217
     25 F2         -0.8122    5.6518   -2.6134 F         1 <0>        -0.1294
     26 H2          0.5568    0.0625   -0.2094 H         1 <0>         0.0838
     27 H3          1.3584    1.6514   -0.2450 H         1 <0>         0.0692
     28 H4         -0.0548    1.3909    0.8053 H         1 <0>         0.0701
     29 H5         -3.9828    0.5199   -4.7852 H         1 <0>         0.1112
     30 H6         -1.6296    1.5377   -6.3742 H         1 <0>         0.0728
     31 H7         -1.8621   -0.0496   -5.5765 H         1 <0>         0.0866
     32 H8         -2.0571    0.1040   -8.2612 H         1 <0>         0.0723
     33 H9         -3.2702   -0.8617   -7.3577 H         1 <0>         0.0718
     34 H10        -3.5180    2.0132   -8.4014 H         1 <0>         0.0702
     35 H11        -4.6744    0.6586   -8.5955 H         1 <0>         0.0731
     36 H12        -5.5178    0.9059   -6.4339 H         1 <0>         0.0856
     37 H13        -4.9089    2.5760   -6.6094 H         1 <0>         0.0742
     38 H14         0.0825    3.4132    0.4278 H         1 <0>         0.1278
     39 H15        -1.8580    5.3428   -0.9243 H         1 <0>         0.0685
     40 H16        -2.2436    4.2720    0.4443 H         1 <0>         0.0755
     41 H17        -1.0723    5.5960    0.6527 H         1 <0>         0.0795
     42 H18         1.2280    6.9303   -3.6231 H         1 <0>         0.1489
     43 H19         3.5532    6.7348   -2.8395 H         1 <0>         0.1501
     44 H20         4.0992    5.2399   -0.9617 H         1 <0>         0.1496
@<TRIPOS>BOND
     1    1   26 1
     2    1   27 1
     3    1   28 1
     4    1    2 1
     5    2    8 1
     6    2    3 2
     7    3   16 1
     8    3    4 1
     9    4    5 1
    10    4    7 1
    11    5   10 1
    12    5    6 2
    13    6    8 1
    14    8    9 2
    15   10   11 1
    16   11   15 1
    17   11   12 1
    18   11   29 1
    19   12   13 1
    20   12   30 1
    21   12   31 1
    22   13   14 1
    23   13   32 1
    24   13   33 1
    25   14   15 1
    26   14   34 1
    27   14   35 1
    28   15   36 1
    29   15   37 1
    30   16   17 1
    31   16   18 1
    32   16   38 1
    33   17   39 1
    34   17   40 1
    35   17   41 1
    36   18   23 ar
    37   18   19 ar
    38   19   20 ar
    39   19   25 1
    40   20   21 ar
    41   20   42 1
    42   21   22 ar
    43   21   43 1
    44   22   23 ar
    45   22   44 1
    46   23   24 1
@<TRIPOS>MOLECULE
CHEMBL236161__2
   44    46     0     0     0
SMALL
USER_CHARGES

@<TRIPOS>ATOM
      1 C1          0.2112    1.3181    1.1867 C.3       1 <0>        -0.0934
      2 C2          0.2125   -0.1390    0.8023 C.2       1 <0>        -0.2492
      3 C3         -0.9494   -0.7659    0.4553 C.2       1 <0>         0.1916
      4 N1         -0.9386   -2.0526    0.1168 N.2       1 <0>        -0.4919
      5 C4          0.1809   -2.7503    0.1072 C.2       1 <0>         0.3582
      6 N2          1.3697   -2.1780    0.4445 N.am      1 <0>        -0.6376
      7 H1          2.1843   -2.7046    0.4325 H         1 <0>         0.4121
      8 C5          1.4113   -0.8734    0.7897 C.2       1 <0>         0.5330
      9 O1          2.4684   -0.3430    1.0895 O.2       1 <0>        -0.5313
     10 S1          0.1372   -4.4516   -0.3493 S.3       1 <0>         0.0346
     11 C6          1.8633   -4.9899   -0.2023 C.3       1 <0>        -0.1142
     12 C7          2.7023   -4.3943   -1.3517 C.3       1 <0>        -0.1308
     13 C8          3.7013   -5.5205   -1.7159 C.3       1 <0>        -0.1204
     14 C9          2.8416   -6.8006   -1.5690 C.3       1 <0>        -0.1236
     15 C10         1.9519   -6.5198   -0.3405 C.3       1 <0>        -0.0973
     16 C11        -2.2468    0.0008    0.4559 C.3       1 <0>        -0.0005
     17 C12        -2.7988    0.0703   -0.9693 C.3       1 <0>        -0.1496
     18 C13        -3.2422   -0.6970    1.3466 C.ar      1 <0>        -0.1597
     19 C14        -3.7072   -1.9570    1.0117 C.ar      1 <0>         0.1609
     20 C15        -4.6219   -2.5972    1.8309 C.ar      1 <0>        -0.1719
     21 C16        -5.0704   -1.9786    2.9826 C.ar      1 <0>        -0.0584
     22 C17        -4.6071   -0.7203    3.3177 C.ar      1 <0>        -0.1700
     23 C18        -3.6878   -0.0808    2.5032 C.ar      1 <0>         0.1349
     24 F1         -3.2305    1.1466    2.8342 F         1 <0>        -0.1289
     25 F2         -3.2693   -2.5617   -0.1142 F         1 <0>        -0.1020
     26 H2          1.2277    1.6324    1.4234 H         1 <0>         0.0790
     27 H3         -0.1689    1.9127    0.3560 H         1 <0>         0.0719
     28 H4         -0.4263    1.4632    2.0589 H         1 <0>         0.0724
     29 H5          2.2709   -4.6776    0.7592 H         1 <0>         0.1002
     30 H6          2.0667   -4.1575   -2.2050 H         1 <0>         0.0885
     31 H7          3.2357   -3.5057   -1.0139 H         1 <0>         0.0704
     32 H8          4.0538   -5.4075   -2.7411 H         1 <0>         0.0772
     33 H9          4.5383   -5.5351   -1.0178 H         1 <0>         0.0735
     34 H10         2.2286   -6.9524   -2.4574 H         1 <0>         0.0742
     35 H11         3.4767   -7.6681   -1.3898 H         1 <0>         0.0765
     36 H12         2.4033   -6.9500    0.5536 H         1 <0>         0.0872
     37 H13         0.9577   -6.9389   -0.4959 H         1 <0>         0.0806
     38 H14        -2.0720    1.0105    0.8275 H         1 <0>         0.1115
     39 H15        -2.9736   -0.9394   -1.3409 H         1 <0>         0.0808
     40 H16        -3.7372    0.6248   -0.9689 H         1 <0>         0.0678
     41 H17        -2.0789    0.5750   -1.6136 H         1 <0>         0.0641
     42 H18        -4.9851   -3.5801    1.5696 H         1 <0>         0.1432
     43 H19        -5.7838   -2.4786    3.6209 H         1 <0>         0.1435
     44 H20        -4.9588   -0.2376    4.2175 H         1 <0>         0.1429
@<TRIPOS>BOND
     1    1    2 1
     2    1   26 1
     3    1   27 1
     4    1   28 1
     5    2    8 1
     6    2    3 2
     7    3    4 1
     8    3   16 1
     9    4    5 2
    10    5    6 1
    11    5   10 1
    12    6    7 1
    13    6    8 am
    14    8    9 2
    15   10   11 1
    16   11   15 1
    17   11   12 1
    18   11   29 1
    19   12   13 1
    20   12   30 1
    21   12   31 1
    22   13   14 1
    23   13   32 1
    24   13   33 1
    25   14   15 1
    26   14   34 1
    27   14   35 1
    28   15   36 1
    29   15   37 1
    30   16   17 1
    31   16   18 1
    32   16   38 1
    33   17   39 1
    34   17   40 1
    35   17   41 1
    36   18   23 ar
    37   18   19 ar
    38   19   20 ar
    39   19   25 1
    40   20   21 ar
    41   20   42 1
    42   21   22 ar
    43   21   43 1
    44   22   23 ar
    45   22   44 1
    46   23   24 1
@<TRIPOS>MOLECULE
CHEMBL236161__3
   44    46     0     0     0
SMALL
USER_CHARGES

@<TRIPOS>ATOM
      1 C1         -0.5214    1.3395    0.8238 C.3       1 <0>        -0.0961
      2 C2         -1.0229    1.5338   -0.5839 C.2       1 <0>        -0.2337
      3 C3         -0.9289    2.7389   -1.1853 C.2       1 <0>         0.1599
      4 N1         -1.3914    2.8867   -2.4613 N.pl3     1 <0>        -0.5946
      5 C4         -1.9417    1.8316   -3.1206 C.2       1 <0>         0.3967
      6 N2         -2.0415    0.6479   -2.5489 N.2       1 <0>        -0.5814
      7 H1         -1.3275    3.7493   -2.9004 H         1 <0>         0.4236
      8 C5         -1.5961    0.4519   -1.3005 C.2       1 <0>         0.5186
      9 O1         -1.6878   -0.6499   -0.7809 O.2       1 <0>        -0.5068
     10 S1         -2.5316    2.0509   -4.7664 S.3       1 <0>        -0.0233
     11 C6         -3.1635    0.4144   -5.2278 C.3       1 <0>        -0.0594
     12 C7         -1.9969   -0.5878   -5.3483 C.3       1 <0>        -0.1147
     13 C8         -2.3925   -1.4892   -6.5442 C.3       1 <0>        -0.1236
     14 C9         -3.0491   -0.4866   -7.5254 C.3       1 <0>        -0.1227
     15 C10        -3.8325    0.4788   -6.6121 C.3       1 <0>        -0.1044
     16 C11        -0.3204    3.9086   -0.4556 C.3       1 <0>        -0.0153
     17 C12         0.6288    4.6570   -1.3936 C.3       1 <0>        -0.1629
     18 C13        -1.4137    4.8401    0.0005 C.ar      1 <0>        -0.1557
     19 C14        -2.1623    5.5382   -0.9312 C.ar      1 <0>         0.1290
     20 C15        -3.1667    6.3938   -0.5110 C.ar      1 <0>        -0.1531
     21 C16        -3.4218    6.5509    0.8383 C.ar      1 <0>        -0.0568
     22 C17        -2.6747    5.8547    1.7695 C.ar      1 <0>        -0.1543
     23 C18        -1.6739    4.9938    1.3513 C.ar      1 <0>         0.1418
     24 F1         -0.9478    4.3087    2.2616 F         1 <0>        -0.1217
     25 F2         -1.9129    5.3852   -2.2502 F         1 <0>        -0.1296
     26 H2         -0.6808    0.3046    1.1267 H         1 <0>         0.0838
     27 H3          0.5431    1.5703    0.8654 H         1 <0>         0.0701
     28 H4         -1.0637    2.0029    1.4975 H         1 <0>         0.0691
     29 H5         -3.8795    0.0672   -4.4829 H         1 <0>         0.1109
     30 H6         -1.0642   -0.0641   -5.5575 H         1 <0>         0.0733
     31 H7         -1.9071   -1.1800   -4.4376 H         1 <0>         0.0867
     32 H8         -1.5101   -1.9463   -6.9919 H         1 <0>         0.0724
     33 H9         -3.1080   -2.2507   -6.2339 H         1 <0>         0.0717
     34 H10        -2.2862    0.0535   -8.0862 H         1 <0>         0.0704
     35 H11        -3.7271   -1.0048   -8.2035 H         1 <0>         0.0730
     36 H12        -4.8729    0.1620   -6.5390 H         1 <0>         0.0854
     37 H13        -3.7774    1.4934   -7.0065 H         1 <0>         0.0742
     38 H14         0.2344    3.5478    0.4105 H         1 <0>         0.1278
     39 H15         0.0741    5.0178   -2.2597 H         1 <0>         0.0681
     40 H16         1.0690    5.5031   -0.8658 H         1 <0>         0.0796
     41 H17         1.4196    3.9833   -1.7235 H         1 <0>         0.0755
     42 H18        -3.7507    6.9389   -1.2378 H         1 <0>         0.1489
     43 H19        -4.2054    7.2184    1.1651 H         1 <0>         0.1501
     44 H20        -2.8745    5.9787    2.8236 H         1 <0>         0.1496
@<TRIPOS>BOND
     1    1   26 1
     2    1   27 1
     3    1   28 1
     4    1    2 1
     5    2    8 1
     6    2    3 2
     7    3   16 1
     8    3    4 1
     9    4    5 1
    10    4    7 1
    11    5   10 1
    12    5    6 2
    13    6    8 1
    14    8    9 2
    15   10   11 1
    16   11   15 1
    17   11   12 1
    18   11   29 1
    19   12   13 1
    20   12   30 1
    21   12   31 1
    22   13   14 1
    23   13   32 1
    24   13   33 1
    25   14   15 1
    26   14   34 1
    27   14   35 1
    28   15   36 1
    29   15   37 1
    30   16   17 1
    31   16   18 1
    32   16   38 1
    33   17   39 1
    34   17   40 1
    35   17   41 1
    36   18   23 ar
    37   18   19 ar
    38   19   20 ar
    39   19   25 1
    40   20   21 ar
    41   20   42 1
    42   21   22 ar
    43   21   43 1
    44   22   23 ar
    45   22   44 1
    46   23   24 1
@<TRIPOS>MOLECULE
CHEMBL151716
   36    37     0     0     0
SMALL
USER_CHARGES

@<TRIPOS>ATOM
      1 C1         -0.0167    1.3779    0.0096 C.ar      1 <0>        -0.1031
      2 C2          1.1696    2.0886    0.0021 C.ar      1 <0>        -0.1277
      3 C3          2.3802    1.4154   -0.0130 C.ar      1 <0>         0.0825
      4 C4          2.3990    0.0236   -0.0206 C.ar      1 <0>         0.0834
      5 C5          1.2071   -0.6822   -0.0130 C.ar      1 <0>        -0.1225
      6 C6          0.0021   -0.0041    0.0020 C.ar      1 <0>        -0.0799
      7 C7         -1.2936   -0.7736    0.0102 C.3       1 <0>        -0.0770
      8 C8         -1.7458   -1.0263   -1.4294 C.3       1 <0>         0.0701
      9 O1         -2.9744   -1.7560   -1.4217 O.3       1 <0>        -0.3462
     10 C9         -3.5118   -2.0619   -2.6189 C.2       1 <0>         0.5130
     11 O2         -2.9525   -1.7185   -3.6415 O.2       1 <0>        -0.4942
     12 C10        -4.7788   -2.8135   -2.6881 C.ar      1 <0>        -0.1029
     13 C11        -5.4261   -3.2042   -1.5126 C.ar      1 <0>        -0.0803
     14 C12        -6.6134   -3.9085   -1.5804 C.ar      1 <0>         0.0854
     15 C13        -7.1644   -4.2294   -2.8183 C.ar      1 <0>         0.0942
     16 C14        -6.5213   -3.8418   -3.9911 C.ar      1 <0>         0.0879
     17 C15        -5.3373   -3.1315   -3.9292 C.ar      1 <0>        -0.0737
     18 O3         -7.0620   -4.1572   -5.1985 O.3       1 <0>        -0.4780
     19 O4         -8.3315   -4.9223   -2.8821 O.3       1 <0>        -0.4727
     20 O5         -7.2438   -4.2890   -0.4370 O.3       1 <0>        -0.4788
     21 O6          3.5850   -0.6417   -0.0359 O.3       1 <0>        -0.4870
     22 O7          3.5476    2.1129   -0.0209 O.3       1 <0>        -0.4877
     23 H1         -0.9598    1.9038    0.0259 H         1 <0>         0.1328
     24 H2          1.1522    3.1684    0.0077 H         1 <0>         0.1364
     25 H3          1.2190   -1.7621   -0.0189 H         1 <0>         0.1357
     26 H4         -1.1467   -1.7271    0.5175 H         1 <0>         0.0886
     27 H5         -2.0555   -0.1967    0.5344 H         1 <0>         0.0896
     28 H6         -1.8927   -0.0728   -1.9368 H         1 <0>         0.0743
     29 H7         -0.9839   -1.6032   -1.9536 H         1 <0>         0.0740
     30 H8         -4.9989   -2.9562   -0.5522 H         1 <0>         0.1544
     31 H9         -4.8415   -2.8270   -4.8390 H         1 <0>         0.1537
     32 H10        -7.6695   -3.4890   -5.5440 H         1 <0>         0.3932
     33 H11        -9.1204   -4.3634   -2.8966 H         1 <0>         0.3919
     34 H12        -7.8771   -3.6394   -0.1022 H         1 <0>         0.3927
     35 H13         3.9367   -0.8389    0.8430 H         1 <0>         0.3890
     36 H14         3.8938    2.3101    0.8602 H         1 <0>         0.3890
@<TRIPOS>BOND
     1    1    6 ar
     2    1    2 ar
     3    1   23 1
     4    2    3 ar
     5    2   24 1
     6    3    4 ar
     7    3   22 1
     8    4    5 ar
     9    4   21 1
    10    5    6 ar
    11    5   25 1
    12    6    7 1
    13    7    8 1
    14    7   26 1
    15    7   27 1
    16    8    9 1
    17    8   28 1
    18    8   29 1
    19    9   10 1
    20   10   11 2
    21   10   12 1
    22   12   17 ar
    23   12   13 ar
    24   13   14 ar
    25   13   30 1
    26   14   15 ar
    27   14   20 1
    28   15   16 ar
    29   15   19 1
    30   16   17 ar
    31   16   18 1
    32   17   31 1
    33   18   32 1
    34   19   33 1
    35   20   34 1
    36   21   35 1
    37   22   36 1
@<TRIPOS>MOLECULE
CHEMBL116474
   30    31     0     0     0
SMALL
USER_CHARGES

@<TRIPOS>ATOM
      1 C1         -0.0217    1.3724    0.0104 C.2       1 <0>        -0.1591
      2 C2          1.1792    2.0568    0.0034 C.2       1 <0>        -0.1458
      3 C3          2.3371    1.3523   -0.0139 C.2       1 <0>        -0.1494
      4 S1          1.7447   -0.3318   -0.0210 S.3       1 <0>         0.0431
      5 C4         -0.0060    0.0171   -0.0004 C.2       1 <0>        -0.1669
      6 C5          3.7563    1.8592   -0.0249 C.3       1 <0>        -0.0462
      7 C6          4.2516    2.0199    1.4137 C.3       1 <0>         0.1278
      8 N1          5.6312    2.5126    1.4030 N.pl3     1 <0>        -0.6827
      9 C7          6.2780    2.7305    2.5652 C.2       1 <0>         0.5208
     10 S2          5.4874    2.4315    4.0540 S.2       1 <0>        -0.4967
     11 N2          7.5472    3.1838    2.5554 N.pl3     1 <0>        -0.6183
     12 C8          8.1791    3.5124    3.7534 C.ar      1 <0>         0.3538
     13 C9          9.4485    4.0796    3.7295 C.ar      1 <0>        -0.1926
     14 C10        10.0647    4.4011    4.9256 C.ar      1 <0>        -0.0242
     15 C11         9.3869    4.1430    6.1105 C.ar      1 <0>        -0.1686
     16 C12         8.1276    3.5773    6.0595 C.ar      1 <0>         0.1560
     17 N3          7.5631    3.2865    4.9029 N.ar      1 <0>        -0.4032
     18 Br1        10.1800    4.5608    7.7755 Br        1 <0>        -0.0378
     19 H1         -0.9585    1.9095    0.0286 H         1 <0>         0.1356
     20 H2          1.1948    3.1366    0.0113 H         1 <0>         0.1337
     21 H3         -0.8370   -0.6728    0.0030 H         1 <0>         0.1871
     22 H4          4.3924    1.1471   -0.5508 H         1 <0>         0.0869
     23 H5          3.7938    2.8233   -0.5320 H         1 <0>         0.0937
     24 H6          3.6156    2.7319    1.9396 H         1 <0>         0.0944
     25 H7          4.2141    1.0557    1.9208 H         1 <0>         0.0932
     26 H8          6.0792    2.6820    0.5595 H         1 <0>         0.3966
     27 H9          8.0209    3.2814    1.7146 H         1 <0>         0.4102
     28 H10         9.9468    4.2664    2.7897 H         1 <0>         0.1414
     29 H11        11.0503    4.8424    4.9380 H         1 <0>         0.1484
     30 H12         7.5965    3.3747    6.9778 H         1 <0>         0.1687
@<TRIPOS>BOND
     1    1    5 2
     2    1    2 1
     3    1   19 1
     4    2    3 2
     5    2   20 1
     6    3    4 1
     7    3    6 1
     8    4    5 1
     9    5   21 1
    10    6    7 1
    11    6   22 1
    12    6   23 1
    13    7    8 1
    14    7   24 1
    15    7   25 1
    16    8    9 1
    17    8   26 1
    18    9   10 2
    19    9   11 1
    20   11   12 1
    21   11   27 1
    22   12   17 ar
    23   12   13 ar
    24   13   14 ar
    25   13   28 1
    26   14   15 ar
    27   14   29 1
    28   15   16 ar
    29   15   18 1
    30   16   17 ar
    31   16   30 1
@<TRIPOS>MOLECULE
CHEMBL145736
   43    47     0     0     0
SMALL
USER_CHARGES

@<TRIPOS>ATOM
      1 C1         -0.0178    1.4608    0.0101 C.3       1 <0>         0.0572
      2 N1          0.0021   -0.0041    0.0020 N.am      1 <0>        -0.5370
      3 C2         -1.2340   -0.6435    0.0049 C.ar      1 <0>         0.0954
      4 C3         -2.2593   -0.1329    0.7979 C.ar      1 <0>        -0.0763
      5 C4         -3.4968   -0.7534    0.7681 C.ar      1 <0>        -0.1427
      6 C5         -3.6802   -1.8622   -0.0523 C.ar      1 <0>         0.1836
      7 N2         -2.6798   -2.3330   -0.7865 N.ar      1 <0>        -0.4658
      8 C6         -1.4778   -1.7770   -0.7685 C.ar      1 <0>         0.3723
      9 N3         -0.4489   -2.3767   -1.4951 N.pl3     1 <0>        -0.5525
     10 C7          0.6535   -2.8789   -0.8243 C.ar      1 <0>         0.4128
     11 C8          1.4445   -2.0243   -0.0411 C.ar      1 <0>        -0.1999
     12 C9          2.5092   -2.5683    0.6861 C.ar      1 <0>        -0.0018
     13 C10         2.7608   -3.9246    0.5696 C.ar      1 <0>        -0.1886
     14 C11         1.9618   -4.6958   -0.2545 C.ar      1 <0>         0.1469
     15 N4          0.9507   -4.1667   -0.9156 N.ar      1 <0>        -0.4925
     16 C12         1.1944   -0.5803   -0.0125 C.2       1 <0>         0.5760
     17 O1          2.1652    0.1513    0.0047 O.2       1 <0>        -0.5222
     18 C13        -0.5337   -2.4738   -2.9545 C.3       1 <0>         0.1062
     19 C14         0.5243   -3.3170   -3.6690 C.3       1 <0>        -0.1730
     20 C15         0.5640   -1.7910   -3.7729 C.3       1 <0>        -0.1993
     21 C16        -5.0060   -2.5244   -0.1064 C.ar      1 <0>        -0.1034
     22 C17        -5.1822   -3.7029   -0.8379 C.ar      1 <0>        -0.0344
     23 C18        -6.4392   -4.2818   -0.8568 C.ar      1 <0>        -0.1750
     24 C19        -7.4711   -3.6818   -0.1580 C.ar      1 <0>         0.1096
     25 N5         -7.2748   -2.5695    0.5232 N.ar      1 <0>        -0.4833
     26 C20        -6.0951   -1.9855    0.5757 C.ar      1 <0>         0.1220
     27 H1          1.0048    1.8381    0.0023 H         1 <0>         0.1070
     28 H2         -0.5450    1.8219   -0.8730 H         1 <0>         0.0716
     29 H3         -0.5280    1.8123    0.9069 H         1 <0>         0.0722
     30 H4         -2.0920    0.7307    1.4244 H         1 <0>         0.1523
     31 H5         -4.3095   -0.3816    1.3745 H         1 <0>         0.1514
     32 H6          3.1200   -1.9451    1.3225 H         1 <0>         0.1491
     33 H7          3.5745   -4.3766    1.1174 H         1 <0>         0.1498
     34 H8          2.1697   -5.7505   -0.3588 H         1 <0>         0.1688
     35 H9         -1.5423   -2.4754   -3.3677 H         1 <0>         0.1316
     36 H10         1.2835   -3.7995   -3.0534 H         1 <0>         0.1049
     37 H11         0.2118   -3.8736   -4.5526 H         1 <0>         0.1054
     38 H12         0.2776   -1.3437   -4.7247 H         1 <0>         0.1045
     39 H13         1.3493   -1.2696   -3.2255 H         1 <0>         0.0905
     40 H14        -4.3586   -4.1498   -1.3748 H         1 <0>         0.1457
     41 H15        -6.6125   -5.1922   -1.4115 H         1 <0>         0.1406
     42 H16        -8.4532   -4.1310   -0.1706 H         1 <0>         0.1601
     43 H17        -5.9722   -1.0782    1.1486 H         1 <0>         0.1601
@<TRIPOS>BOND
     1    1    2 1
     2    1   27 1
     3    1   28 1
     4    1   29 1
     5    2   16 am
     6    2    3 1
     7    3    8 ar
     8    3    4 ar
     9    4    5 ar
    10    4   30 1
    11    5    6 ar
    12    5   31 1
    13    6    7 ar
    14    6   21 1
    15    7    8 ar
    16    8    9 1
    17    9   10 1
    18    9   18 1
    19   10   15 ar
    20   10   11 ar
    21   11   12 ar
    22   11   16 1
    23   12   13 ar
    24   12   32 1
    25   13   14 ar
    26   13   33 1
    27   14   15 ar
    28   14   34 1
    29   16   17 2
    30   18   20 1
    31   18   19 1
    32   18   35 1
    33   19   20 1
    34   19   36 1
    35   19   37 1
    36   20   38 1
    37   20   39 1
    38   21   26 ar
    39   21   22 ar
    40   22   23 ar
    41   22   40 1
    42   23   24 ar
    43   23   41 1
    44   24   25 ar
    45   24   42 1
    46   25   26 ar
    47   26   43 1
@<TRIPOS>MOLECULE
CHEMBL79338
   47    51     0     0     0
SMALL
USER_CHARGES

@<TRIPOS>ATOM
      1 C1         -0.0187    1.5258    0.0104 C.3       1 <0>        -0.1709
      2 C2          0.0021   -0.0041    0.0020 C.3       1 <0>         0.1379
      3 N1          0.6878   -0.4765   -1.2033 N.pl3     1 <0>        -0.5784
      4 C3         -0.0234   -0.7078   -2.3685 C.ar      1 <0>         0.4177
      5 C4          0.3074   -0.0047   -3.5385 C.ar      1 <0>        -0.2011
      6 C5         -0.3684   -0.3142   -4.7240 C.ar      1 <0>        -0.0018
      7 C6         -1.3671   -1.2720   -4.6821 C.ar      1 <0>        -0.1929
      8 C7         -1.6674   -1.8890   -3.4816 C.ar      1 <0>         0.1501
      9 N2         -1.0032   -1.5988   -2.3797 N.ar      1 <0>        -0.4996
     10 C8          1.3095    1.0644   -3.5226 C.2       1 <0>         0.5763
     11 O1          1.0823    2.0467   -4.2021 O.2       1 <0>        -0.5279
     12 N3          2.4408    1.0559   -2.8331 N.am      1 <0>        -0.5363
     13 C9          2.9147    0.0270   -2.0200 C.ar      1 <0>         0.0765
     14 C10         2.0650   -0.6930   -1.1921 C.ar      1 <0>         0.3722
     15 N4          2.5566   -1.6178   -0.3785 N.ar      1 <0>        -0.4715
     16 C11         3.8511   -1.9124   -0.3530 C.ar      1 <0>         0.2318
     17 C12         4.7460   -1.2518   -1.1907 C.ar      1 <0>        -0.1577
     18 C13         4.2741   -0.2753   -2.0318 C.ar      1 <0>        -0.0728
     19 C14         4.3479   -2.9532    0.5756 C.2       1 <0>        -0.1428
     20 C15         5.6333   -3.3605    0.7229 C.2       1 <0>         0.0925
     21 N5          5.7017   -4.3368    1.6733 N.pl3     1 <0>        -0.5857
     22 H1          6.5163   -4.7829    1.9531 H         1 <0>         0.4206
     23 C16         4.4462   -4.5970    2.1791 C.ar      1 <0>         0.0882
     24 C17         3.5438   -3.7427    1.5228 C.ar      1 <0>        -0.0761
     25 C18         2.1875   -3.7830    1.8412 C.ar      1 <0>        -0.0571
     26 C19         1.7388   -4.6608    2.8029 C.ar      1 <0>        -0.1462
     27 C20         2.6296   -5.5021    3.4543 C.ar      1 <0>        -0.0960
     28 C21         3.9717   -5.4798    3.1438 C.ar      1 <0>        -0.1324
     29 C22         3.2813    2.2513   -2.9360 C.3       1 <0>         0.0593
     30 H2          1.0039    1.9031    0.0027 H         1 <0>         0.0541
     31 H3         -0.5459    1.8868   -0.8726 H         1 <0>         0.0536
     32 H4         -0.5289    1.8773    0.9072 H         1 <0>         0.0716
     33 H5          0.5293   -0.3651    0.8851 H         1 <0>         0.0835
     34 H6         -1.0205   -0.3814    0.0098 H         1 <0>         0.0833
     35 H7         -0.1171    0.1824   -5.6496 H         1 <0>         0.1473
     36 H8         -1.9075   -1.5347   -5.5795 H         1 <0>         0.1481
     37 H9         -2.4600   -2.6218   -3.4456 H         1 <0>         0.1672
     38 H10         5.7956   -1.5062   -1.1799 H         1 <0>         0.1440
     39 H11         4.9497    0.2534   -2.6879 H         1 <0>         0.1462
     40 H12         6.4757   -2.9708    0.1708 H         1 <0>         0.1778
     41 H13         1.4919   -3.1289    1.3364 H         1 <0>         0.1339
     42 H14         0.6884   -4.6942    3.0517 H         1 <0>         0.1235
     43 H15         2.2662   -6.1858    4.2072 H         1 <0>         0.1257
     44 H16         4.6565   -6.1381    3.6577 H         1 <0>         0.1202
     45 H17         2.8037    2.9756   -3.5960 H         1 <0>         0.1051
     46 H18         3.4105    2.6909   -1.9470 H         1 <0>         0.0692
     47 H19         4.2551    1.9770   -3.3417 H         1 <0>         0.0698
@<TRIPOS>BOND
     1    1    2 1
     2    1   30 1
     3    1   31 1
     4    1   32 1
     5    2    3 1
     6    2   33 1
     7    2   34 1
     8    3   14 1
     9    3    4 1
    10    4    9 ar
    11    4    5 ar
    12    5    6 ar
    13    5   10 1
    14    6    7 ar
    15    6   35 1
    16    7    8 ar
    17    7   36 1
    18    8    9 ar
    19    8   37 1
    20   10   11 2
    21   10   12 am
    22   12   13 1
    23   12   29 1
    24   13   18 ar
    25   13   14 ar
    26   14   15 ar
    27   15   16 ar
    28   16   17 ar
    29   16   19 1
    30   17   18 ar
    31   17   38 1
    32   18   39 1
    33   19   24 1
    34   19   20 2
    35   20   21 1
    36   20   40 1
    37   21   22 1
    38   21   23 1
    39   23   28 ar
    40   23   24 ar
    41   24   25 ar
    42   25   26 ar
    43   25   41 1
    44   26   27 ar
    45   26   42 1
    46   27   28 ar
    47   27   43 1
    48   28   44 1
    49   29   45 1
    50   29   46 1
    51   29   47 1
@<TRIPOS>MOLECULE
CHEMBL319139
   50    51     0     0     0
SMALL
USER_CHARGES

@<TRIPOS>ATOM
      1 C1          1.3145    1.6411    1.1419 C.3       1 <0>        -0.1519
      2 C2          0.9575    0.1983    0.7792 C.3       1 <0>         0.0430
      3 O1         -0.4587    0.0818    0.6272 O.3       1 <0>        -0.3685
      4 C3         -0.9004   -1.2338    0.2863 C.3       1 <0>         0.2678
      5 N1         -0.9411   -2.0633    1.4931 N.am      1 <0>        -0.5420
      6 C4          0.0219   -3.0143    1.6946 C.2       1 <0>         0.1956
      7 C5         -0.0154   -3.7785    2.8071 C.2       1 <0>        -0.2410
      8 C6         -1.0559   -3.5779    3.7460 C.2       1 <0>         0.5581
      9 O2         -1.1102   -4.2546    4.7570 O.2       1 <0>        -0.5020
     10 N2         -1.9858   -2.6303    3.5106 N.am      1 <0>        -0.6613
     11 H1         -2.7018   -2.4870    4.1492 H         1 <0>         0.4313
     12 C7         -1.9217   -1.8791    2.3956 C.2       1 <0>         0.7015
     13 O3         -2.7644   -1.0250    2.1991 O.2       1 <0>        -0.5254
     14 C8          1.0362   -4.8312    3.0460 C.3       1 <0>        -0.0230
     15 C9          1.7796   -4.5234    4.3473 C.3       1 <0>        -0.1524
     16 C10         0.3687   -6.2039    3.1523 C.3       1 <0>        -0.1510
     17 C11         1.1186   -3.2082    0.6793 C.3       1 <0>        -0.0582
     18 C12         0.7158   -4.2840   -0.2960 C.ar      1 <0>        -0.0821
     19 C13         1.1315   -5.5874   -0.0980 C.ar      1 <0>        -0.1118
     20 C14         0.7620   -6.5743   -0.9927 C.ar      1 <0>        -0.0730
     21 C15        -0.0236   -6.2578   -2.0852 C.ar      1 <0>        -0.1156
     22 C16        -0.4401   -4.9545   -2.2828 C.ar      1 <0>        -0.0737
     23 C17        -0.0741   -3.9685   -1.3857 C.ar      1 <0>        -0.1269
     24 C18        -1.2961   -4.6094   -3.4740 C.3       1 <0>        -0.1187
     25 C19         1.2160   -7.9950   -0.7773 C.3       1 <0>        -0.1184
     26 H2          2.3947    1.7300    1.2578 H         1 <0>         0.0753
     27 H3          0.9781    2.3090    0.3488 H         1 <0>         0.0675
     28 H4          0.8251    1.9124    2.0773 H         1 <0>         0.0647
     29 H5          1.4468   -0.0730   -0.1562 H         1 <0>         0.0573
     30 H6          1.2939   -0.4696    1.5723 H         1 <0>         0.0502
     31 H7         -1.8971   -1.1803   -0.1516 H         1 <0>         0.1320
     32 H8         -0.2103   -1.6735   -0.4338 H         1 <0>         0.0994
     33 H9          1.7426   -4.8340    2.2159 H         1 <0>         0.0832
     34 H10         1.0732   -4.5206    5.1774 H         1 <0>         0.0720
     35 H11         2.5402   -5.2848    4.5201 H         1 <0>         0.0602
     36 H12         2.2551   -3.5455    4.2715 H         1 <0>         0.0502
     37 H13        -0.3377   -6.2010    3.9824 H         1 <0>         0.0716
     38 H14        -0.1609   -6.4232    2.2252 H         1 <0>         0.0528
     39 H15         1.1293   -6.9653    3.3251 H         1 <0>         0.0593
     40 H16         1.2856   -2.2746    0.1421 H         1 <0>         0.0935
     41 H17         2.0363   -3.5039    1.1878 H         1 <0>         0.1178
     42 H18         1.7452   -5.8347    0.7556 H         1 <0>         0.1296
     43 H19        -0.3117   -7.0286   -2.7846 H         1 <0>         0.1241
     44 H20        -0.4026   -2.9510   -1.5380 H         1 <0>         0.1182
     45 H21        -2.3480   -4.7125   -3.2076 H         1 <0>         0.0728
     46 H22        -1.0975   -3.5819   -3.7787 H         1 <0>         0.0678
     47 H23        -1.0620   -5.2843   -4.2974 H         1 <0>         0.0694
     48 H24         0.4803   -8.5236   -0.1711 H         1 <0>         0.0735
     49 H25         1.3185   -8.4937   -1.7411 H         1 <0>         0.0681
     50 H26         2.1775   -7.9953   -0.2639 H         1 <0>         0.0691
@<TRIPOS>BOND
     1    1    2 1
     2    1   26 1
     3    1   27 1
     4    1   28 1
     5    2    3 1
     6    2   29 1
     7    2   30 1
     8    3    4 1
     9    4    5 1
    10    4   31 1
    11    4   32 1
    12    5   12 am
    13    5    6 1
    14    6    7 2
    15    6   17 1
    16    7    8 1
    17    7   14 1
    18    8    9 2
    19    8   10 am
    20   10   11 1
    21   10   12 am
    22   12   13 2
    23   14   15 1
    24   14   16 1
    25   14   33 1
    26   15   34 1
    27   15   35 1
    28   15   36 1
    29   16   37 1
    30   16   38 1
    31   16   39 1
    32   17   18 1
    33   17   40 1
    34   17   41 1
    35   18   23 ar
    36   18   19 ar
    37   19   20 ar
    38   19   42 1
    39   20   21 ar
    40   20   25 1
    41   21   22 ar
    42   21   43 1
    43   22   23 ar
    44   22   24 1
    45   23   44 1
    46   24   45 1
    47   24   46 1
    48   24   47 1
    49   25   48 1
    50   25   49 1
    51   25   50 1
@<TRIPOS>MOLECULE
CHEMBL314883
   47    49     0     0     0
SMALL
USER_CHARGES

@<TRIPOS>ATOM
      1 C1         -0.0187    1.5258    0.0104 C.3       1 <0>        -0.1486
      2 C2          0.0021   -0.0041    0.0020 C.3       1 <0>        -0.0698
      3 C3         -1.4117   -0.5257    0.0127 C.2       1 <0>        -0.1272
      4 C4         -2.0964   -0.6700    1.2283 C.2       1 <0>        -0.1469
      5 C5         -3.3792   -1.1443    1.2205 C.2       1 <0>         0.1104
      6 C6         -3.9830   -1.4773   -0.0120 C.2       1 <0>         0.5129
      7 N1         -3.2953   -1.3259   -1.1599 N.am      1 <0>        -0.5932
      8 C7         -2.0214   -0.8491   -1.1501 C.2       1 <0>         0.0822
      9 C8         -1.2783   -0.6846   -2.4508 C.3       1 <0>        -0.1179
     10 O1         -5.1271   -1.9024   -0.0367 O.2       1 <0>        -0.5509
     11 N2         -4.0851   -1.2984    2.4201 N.pl3     1 <0>        -0.7197
     12 C9         -5.4588   -1.8073    2.4015 C.3       1 <0>         0.1923
     13 C10        -5.9877   -1.8773    3.8109 C.ar      1 <0>        -0.1419
     14 C11        -5.9996   -3.0814    4.4860 C.ar      1 <0>        -0.0497
     15 C12        -6.4851   -3.1513    5.7812 C.ar      1 <0>        -0.1367
     16 C13        -6.9601   -2.0108    6.4028 C.ar      1 <0>        -0.0514
     17 C14        -6.9489   -0.8023    5.7289 C.ar      1 <0>        -0.1998
     18 C15        -6.4582   -0.7310    4.4342 C.ar      1 <0>         0.1449
     19 O2         -6.4433    0.4577    3.7757 O.3       1 <0>        -0.3072
     20 C16        -6.9434    1.5960    4.4802 C.3       1 <0>         0.0261
     21 C17        -7.4310   -2.3488    7.8012 C.3       1 <0>        -0.0854
     22 C18        -7.5996   -3.8829    7.8109 C.3       1 <0>        -0.1208
     23 C19        -6.6045   -4.3327    6.7203 C.3       1 <0>        -0.0782
     24 H1          1.0039    1.9031    0.0027 H         1 <0>         0.0570
     25 H2         -0.5459    1.8868   -0.8726 H         1 <0>         0.0543
     26 H3         -0.5289    1.8773    0.9072 H         1 <0>         0.0557
     27 H4          0.5123   -0.3556   -0.8948 H         1 <0>         0.0734
     28 H5          0.5293   -0.3651    0.8851 H         1 <0>         0.0725
     29 H6         -1.6159   -0.4098    2.1599 H         1 <0>         0.1273
     30 H7         -0.7443   -1.6060   -2.6831 H         1 <0>         0.0805
     31 H8         -1.9873   -0.4644   -3.2489 H         1 <0>         0.0703
     32 H9         -0.5659    0.1354   -2.3610 H         1 <0>         0.0894
     33 H10        -3.7145   -1.5560   -2.0038 H         1 <0>         0.4144
     34 H11        -3.6646   -1.0682    3.2633 H         1 <0>         0.4021
     35 H12        -6.0857   -1.1392    1.8109 H         1 <0>         0.0772
     36 H13        -5.4713   -2.8032    1.9588 H         1 <0>         0.0721
     37 H14        -5.6290   -3.9729    4.0019 H         1 <0>         0.1283
     38 H15        -7.3201    0.0883    6.2140 H         1 <0>         0.1273
     39 H16        -7.9848    1.4255    4.7533 H         1 <0>         0.0556
     40 H17        -6.3523    1.7535    5.3823 H         1 <0>         0.0552
     41 H18        -6.8746    2.4771    3.8423 H         1 <0>         0.1005
     42 H19        -6.6844   -2.0457    8.5352 H         1 <0>         0.0828
     43 H20        -8.3843   -1.8622    8.0072 H         1 <0>         0.0763
     44 H21        -7.3244   -4.2968    8.7810 H         1 <0>         0.0780
     45 H22        -8.6189   -4.1623    7.5444 H         1 <0>         0.0733
     46 H23        -6.9935   -5.2009    6.1882 H         1 <0>         0.0747
     47 H24        -5.6358   -4.5627    7.1638 H         1 <0>         0.0784
@<TRIPOS>BOND
     1    1    2 1
     2    1   24 1
     3    1   25 1
     4    1   26 1
     5    2   27 1
     6    2   28 1
     7    2    3 1
     8    3    8 2
     9    3    4 1
    10    4   29 1
    11    4    5 2
    12    5    6 1
    13    5   11 1
    14    6   10 2
    15    6    7 am
    16    7   33 1
    17    7    8 1
    18    8    9 1
    19    9   30 1
    20    9   31 1
    21    9   32 1
    22   11   12 1
    23   11   34 1
    24   12   13 1
    25   12   35 1
    26   12   36 1
    27   13   18 ar
    28   13   14 ar
    29   14   15 ar
    30   14   37 1
    31   15   23 1
    32   15   16 ar
    33   16   17 ar
    34   16   21 1
    35   17   18 ar
    36   17   38 1
    37   18   19 1
    38   19   20 1
    39   20   39 1
    40   20   40 1
    41   20   41 1
    42   21   22 1
    43   21   42 1
    44   21   43 1
    45   22   23 1
    46   22   44 1
    47   22   45 1
    48   23   46 1
    49   23   47 1
@<TRIPOS>MOLECULE
CHEMBL33872
   36    38     0     0     0
SMALL
USER_CHARGES

@<TRIPOS>ATOM
      1 C1         -0.0187    1.5258    0.0104 C.3       1 <0>        -0.1475
      2 C2          0.0021   -0.0041    0.0020 C.3       1 <0>        -0.1195
      3 C3         -1.4333   -0.5336    0.0129 C.3       1 <0>         0.0119
      4 C4         -1.4100   -2.0299    0.1524 C.ar      1 <0>         0.1256
      5 C5         -0.7267   -2.8238   -0.7509 C.ar      1 <0>         0.1024
      6 C6         -0.7498   -4.2113   -0.5848 C.ar      1 <0>        -0.0931
      7 C7         -1.4490   -4.7406    0.4852 C.ar      1 <0>        -0.1494
      8 C8         -2.0999   -3.8826    1.3518 C.ar      1 <0>         0.0967
      9 N1         -2.0630   -2.5801    1.1645 N.ar      1 <0>        -0.4558
     10 N2         -0.0036   -2.2931   -1.8084 N.am      1 <0>        -0.5378
     11 C9         -0.3554   -1.2939   -2.5961 C.2       1 <0>         0.5704
     12 O1          0.4174   -0.9917   -3.4844 O.2       1 <0>        -0.5237
     13 C10        -1.5962   -0.5146   -2.4965 C.ar      1 <0>        -0.1245
     14 C11        -2.1192   -0.1365   -1.2638 C.ar      1 <0>         0.1168
     15 N3         -3.2297    0.5771   -1.2007 N.ar      1 <0>        -0.4352
     16 C12        -3.8878    0.9510   -2.2786 C.ar      1 <0>         0.0602
     17 C13        -3.4362    0.6063   -3.5471 C.ar      1 <0>         0.1635
     18 C14        -2.2700   -0.1399   -3.6667 C.ar      1 <0>        -0.1036
     19 N4         -4.1445    1.0033   -4.6845 N.pl3     1 <0>        -0.8653
     20 C15         1.2967   -2.9101   -2.0819 C.3       1 <0>         0.0640
     21 H1          1.0039    1.9031    0.0027 H         1 <0>         0.0595
     22 H2         -0.5459    1.8868   -0.8726 H         1 <0>         0.0530
     23 H3         -0.5289    1.8773    0.9072 H         1 <0>         0.0621
     24 H4          0.5123   -0.3556   -0.8948 H         1 <0>         0.0648
     25 H5          0.5293   -0.3651    0.8851 H         1 <0>         0.0762
     26 H6         -1.9696   -0.1039    0.8589 H         1 <0>         0.1210
     27 H7         -0.2323   -4.8576   -1.2784 H         1 <0>         0.1427
     28 H8         -1.4861   -5.8087    0.6410 H         1 <0>         0.1447
     29 H9         -2.6452   -4.2855    2.1925 H         1 <0>         0.1646
     30 H10        -4.7910    1.5340   -2.1753 H         1 <0>         0.1619
     31 H11        -1.8921   -0.4238   -4.6377 H         1 <0>         0.1434
     32 H12        -4.9580    1.5235   -4.5923 H         1 <0>         0.4051
     33 H13        -3.8225    0.7586   -5.5663 H         1 <0>         0.4034
     34 H14         1.1688   -3.7278   -2.7912 H         1 <0>         0.0680
     35 H15         1.9709   -2.1649   -2.5041 H         1 <0>         0.0948
     36 H16         1.7178   -3.2967   -1.1538 H         1 <0>         0.0790
@<TRIPOS>BOND
     1    1    2 1
     2    1   21 1
     3    1   22 1
     4    1   23 1
     5    2    3 1
     6    2   24 1
     7    2   25 1
     8    3   14 1
     9    3    4 1
    10    3   26 1
    11    4    9 ar
    12    4    5 ar
    13    5    6 ar
    14    5   10 1
    15    6    7 ar
    16    6   27 1
    17    7    8 ar
    18    7   28 1
    19    8    9 ar
    20    8   29 1
    21   10   11 am
    22   10   20 1
    23   11   12 2
    24   11   13 1
    25   13   18 ar
    26   13   14 ar
    27   14   15 ar
    28   15   16 ar
    29   16   17 ar
    30   16   30 1
    31   17   18 ar
    32   17   19 1
    33   18   31 1
    34   19   32 1
    35   19   33 1
    36   20   34 1
    37   20   35 1
    38   20   36 1
@<TRIPOS>MOLECULE
CHEMBL33872__1
   36    38     0     0     0
SMALL
USER_CHARGES

@<TRIPOS>ATOM
      1 C1         -0.0187    1.5258    0.0104 C.3       1 <0>        -0.1474
      2 C2          0.0021   -0.0041    0.0020 C.3       1 <0>        -0.1196
      3 C3         -1.4333   -0.5336    0.0129 C.3       1 <0>         0.0121
      4 C4         -1.4128   -2.0283   -0.1432 C.ar      1 <0>         0.1249
      5 C5         -0.7123   -2.8318    0.7382 C.ar      1 <0>         0.1039
      6 C6         -0.7385   -4.2174    0.5576 C.ar      1 <0>        -0.0962
      7 C7         -1.4581   -4.7353   -0.5045 C.ar      1 <0>        -0.1486
      8 C8         -2.1255   -3.8680   -1.3491 C.ar      1 <0>         0.0964
      9 N1         -2.0851   -2.5677   -1.1484 N.ar      1 <0>        -0.4552
     10 N2          0.0309   -2.3124    1.7874 N.am      1 <0>        -0.5378
     11 C9         -0.3059   -1.3221    2.5927 C.2       1 <0>         0.5707
     12 O1          0.4840   -1.0291    3.4690 O.2       1 <0>        -0.5238
     13 C10        -1.5485   -0.5422    2.5255 C.ar      1 <0>        -0.1243
     14 C11        -2.0946   -0.1503    1.3066 C.ar      1 <0>         0.1166
     15 N3         -3.2061    0.5638    1.2724 N.ar      1 <0>        -0.4351
     16 C12        -3.8434    0.9260    2.3666 C.ar      1 <0>         0.0600
     17 C13        -3.3680    0.5674    3.6225 C.ar      1 <0>         0.1636
     18 C14        -2.2000   -0.1807    3.7123 C.ar      1 <0>        -0.1037
     19 N4         -4.0539    0.9528    4.7775 N.pl3     1 <0>        -0.8653
     20 C15         1.3360   -2.9324    2.0295 C.3       1 <0>         0.0605
     21 H1          1.0039    1.9031    0.0027 H         1 <0>         0.0595
     22 H2         -0.5459    1.8868   -0.8726 H         1 <0>         0.0621
     23 H3         -0.5289    1.8773    0.9072 H         1 <0>         0.0530
     24 H4          0.5123   -0.3556   -0.8948 H         1 <0>         0.0761
     25 H5          0.5293   -0.3651    0.8851 H         1 <0>         0.0648
     26 H6         -1.9856   -0.0949   -0.8181 H         1 <0>         0.1210
     27 H7         -0.2072   -4.8710    1.2337 H         1 <0>         0.1439
     28 H8         -1.4981   -5.8016   -0.6711 H         1 <0>         0.1448
     29 H9         -2.6868   -4.2620   -2.1835 H         1 <0>         0.1647
     30 H10        -4.7482    1.5103    2.2868 H         1 <0>         0.1619
     31 H11        -1.8037   -0.4754    4.6728 H         1 <0>         0.1435
     32 H12        -4.8685    1.4746    4.7064 H         1 <0>         0.4051
     33 H13        -3.7154    0.6984    5.6502 H         1 <0>         0.4034
     34 H14         2.0979   -2.4147    1.4467 H         1 <0>         0.0701
     35 H15         1.5801   -2.8632    3.0896 H         1 <0>         0.0943
     36 H16         1.3010   -3.9805    1.7324 H         1 <0>         0.0801
@<TRIPOS>BOND
     1    1    2 1
     2    1   21 1
     3    1   22 1
     4    1   23 1
     5    2    3 1
     6    2   24 1
     7    2   25 1
     8    3   14 1
     9    3    4 1
    10    3   26 1
    11    4    9 ar
    12    4    5 ar
    13    5    6 ar
    14    5   10 1
    15    6    7 ar
    16    6   27 1
    17    7    8 ar
    18    7   28 1
    19    8    9 ar
    20    8   29 1
    21   10   11 am
    22   10   20 1
    23   11   12 2
    24   11   13 1
    25   13   18 ar
    26   13   14 ar
    27   14   15 ar
    28   15   16 ar
    29   16   17 ar
    30   16   30 1
    31   17   18 ar
    32   17   19 1
    33   18   31 1
    34   19   32 1
    35   19   33 1
    36   20   34 1
    37   20   35 1
    38   20   36 1
@<TRIPOS>MOLECULE
CHEMBL106694
   49    52     0     0     0
SMALL
USER_CHARGES

@<TRIPOS>ATOM
      1 C1         11.0549    0.7487    1.7619 C.ar      1 <0>        -0.1513
      2 C2          9.9637    1.5579    2.0192 C.ar      1 <0>        -0.0821
      3 C3          8.7126    0.9982    2.1916 C.ar      1 <0>        -0.1436
      4 C4          8.5516   -0.3773    2.1064 C.ar      1 <0>         0.1201
      5 C5          9.6483   -1.1871    1.8481 C.ar      1 <0>        -0.1954
      6 C6         10.8972   -0.6223    1.6766 C.ar      1 <0>        -0.0821
      7 O1          7.3220   -0.9305    2.2761 O.3       1 <0>        -0.2551
      8 C7          7.1932   -2.2697    2.0855 C.ar      1 <0>         0.1230
      9 C8          7.6530   -3.1560    3.0498 C.ar      1 <0>        -0.1583
     10 C9          7.5218   -4.5176    2.8568 C.ar      1 <0>        -0.0670
     11 C10         6.9328   -5.0009    1.7037 C.ar      1 <0>        -0.1923
     12 C11         6.4716   -4.1191    0.7367 C.ar      1 <0>         0.1328
     13 C12         6.5972   -2.7519    0.9303 C.ar      1 <0>        -0.1436
     14 O2          5.8928   -4.5950   -0.3970 O.3       1 <0>        -0.2793
     15 C13         5.6945   -6.0077   -0.4804 C.3       1 <0>         0.2903
     16 C14         4.9524   -6.4698    0.7039 C.1       1 <0>        -0.2339
     17 C15         4.3606   -6.8383    1.6485 C.1       1 <0>        -0.0470
     18 C16         3.6185   -7.3003    2.8328 C.3       1 <0>        -0.0664
     19 C17         4.3685   -8.1750    3.8395 C.3       1 <0>        -0.1579
     20 C18         3.3045   -8.7945    2.9312 C.3       1 <0>        -0.1577
     21 C19         7.0318   -6.7002   -0.5370 C.2       1 <0>        -0.2816
     22 C20         8.1859   -5.9739   -0.5057 C.2       1 <0>         0.0409
     23 C21         9.4175   -6.6415   -0.5592 C.2       1 <0>        -0.2389
     24 C22         9.4510   -7.9921   -0.6409 C.2       1 <0>         0.1619
     25 N1          8.3012   -8.7134   -0.6724 N.am      1 <0>        -0.6034
     26 C23         7.1029   -8.1015   -0.6168 C.2       1 <0>         0.5250
     27 O3          6.0780   -8.7640   -0.6405 O.2       1 <0>        -0.5159
     28 C24         4.8958   -6.3369   -1.7432 C.3       1 <0>         0.4770
     29 F1          5.6650   -6.0375   -2.8727 F         1 <0>        -0.1695
     30 F2          4.5706   -7.6976   -1.7477 F         1 <0>        -0.1370
     31 F3          3.7216   -5.5767   -1.7637 F         1 <0>        -0.1690
     32 H1         12.0314    1.1887    1.6230 H         1 <0>         0.1259
     33 H2         10.0896    2.6285    2.0857 H         1 <0>         0.1321
     34 H3          7.8606    1.6307    2.3929 H         1 <0>         0.1333
     35 H4          9.5257   -2.2581    1.7813 H         1 <0>         0.1296
     36 H5         11.7511   -1.2521    1.4752 H         1 <0>         0.1264
     37 H6          8.1139   -2.7808    3.9516 H         1 <0>         0.1356
     38 H7          7.8804   -5.2056    3.6081 H         1 <0>         0.1356
     39 H8          6.8317   -6.0658    1.5550 H         1 <0>         0.1441
     40 H9          6.2351   -2.0639    0.1807 H         1 <0>         0.1455
     41 H10         2.8777   -6.6035    3.2248 H         1 <0>         0.1341
     42 H11         5.4113   -8.4083    3.6248 H         1 <0>         0.1021
     43 H12         4.1212   -8.0536    4.8941 H         1 <0>         0.1076
     44 H13         2.3572   -9.0807    3.3882 H         1 <0>         0.1089
     45 H14         3.6474   -9.4354    2.1189 H         1 <0>         0.1012
     46 H15         8.1513   -4.8964   -0.4408 H         1 <0>         0.1428
     47 H16        10.3388   -6.0785   -0.5356 H         1 <0>         0.1561
     48 H17        10.4024   -8.5015   -0.6818 H         1 <0>         0.1741
     49 H18         8.3434   -9.6806   -0.7317 H         1 <0>         0.4224
@<TRIPOS>BOND
     1    1    6 ar
     2    1    2 ar
     3    1   32 1
     4    2    3 ar
     5    2   33 1
     6    3    4 ar
     7    3   34 1
     8    4    5 ar
     9    4    7 1
    10    5    6 ar
    11    5   35 1
    12    6   36 1
    13    7    8 1
    14    8   13 ar
    15    8    9 ar
    16    9   10 ar
    17    9   37 1
    18   10   11 ar
    19   10   38 1
    20   11   12 ar
    21   11   39 1
    22   12   13 ar
    23   12   14 1
    24   13   40 1
    25   14   15 1
    26   15   16 1
    27   15   28 1
    28   15   21 1
    29   16   17 3
    30   17   18 1
    31   18   20 1
    32   18   19 1
    33   18   41 1
    34   19   20 1
    35   19   42 1
    36   19   43 1
    37   20   44 1
    38   20   45 1
    39   21   22 2
    40   21   26 1
    41   22   23 1
    42   22   46 1
    43   23   24 2
    44   23   47 1
    45   24   25 1
    46   24   48 1
    47   25   26 am
    48   25   49 1
    49   26   27 2
    50   28   29 1
    51   28   30 1
    52   28   31 1
@<TRIPOS>MOLECULE
CHEMBL106694__1
   49    52     0     0     0
SMALL
USER_CHARGES

@<TRIPOS>ATOM
      1 C1          2.8603    0.2688   -5.1866 C.ar      1 <0>        -0.1509
      2 C2          3.8691    1.1620   -4.8759 C.ar      1 <0>        -0.0827
      3 C3          4.9768    0.7361   -4.1690 C.ar      1 <0>        -0.1442
      4 C4          5.0767   -0.5893   -3.7707 C.ar      1 <0>         0.1203
      5 C5          4.0630   -1.4836   -4.0837 C.ar      1 <0>        -0.1924
      6 C6          2.9574   -1.0525   -4.7909 C.ar      1 <0>        -0.0818
      7 O1          6.1655   -1.0109   -3.0756 O.3       1 <0>        -0.2564
      8 C7          6.2514   -2.3306   -2.7635 C.ar      1 <0>         0.1214
      9 C8          6.8395   -3.2183   -3.6542 C.ar      1 <0>        -0.1505
     10 C9          6.9276   -4.5600   -3.3372 C.ar      1 <0>        -0.0670
     11 C10         6.4307   -5.0220   -2.1331 C.ar      1 <0>        -0.1929
     12 C11         5.8419   -4.1389   -1.2394 C.ar      1 <0>         0.1320
     13 C12         5.7570   -2.7909   -1.5528 C.ar      1 <0>        -0.1488
     14 O2          5.3532   -4.5940   -0.0559 O.3       1 <0>        -0.2795
     15 C13         5.4751   -5.9944    0.2009 C.3       1 <0>         0.2897
     16 C14         4.8843   -6.7511   -0.9150 C.1       1 <0>        -0.2313
     17 C15         4.4131   -7.3546   -1.8050 C.1       1 <0>        -0.0498
     18 C16         3.8223   -8.1112   -2.9209 C.3       1 <0>        -0.0662
     19 C17         2.5341   -8.8887   -2.6435 C.3       1 <0>        -0.1580
     20 C18         3.8542   -9.6384   -2.8341 C.3       1 <0>        -0.1576
     21 C19         6.9320   -6.3553    0.3368 C.2       1 <0>        -0.2817
     22 C20         7.8940   -5.3963    0.2123 C.2       1 <0>         0.0411
     23 C21         9.2423   -5.7571    0.3434 C.2       1 <0>        -0.2380
     24 C22         9.5761   -7.0453    0.5909 C.2       1 <0>         0.1614
     25 N1          8.6172   -7.9984    0.7141 N.am      1 <0>        -0.6034
     26 C23         7.3133   -7.6822    0.5991 C.2       1 <0>         0.5251
     27 O3          6.4625   -8.5493    0.7179 O.2       1 <0>        -0.5165
     28 C24         4.7407   -6.3411    1.4975 C.3       1 <0>         0.4768
     29 F1          3.4192   -5.8884    1.4203 F         1 <0>        -0.1696
     30 F2          4.7486   -7.7279    1.6815 F         1 <0>        -0.1360
     31 F3          5.3827   -5.7239    2.5764 F         1 <0>        -0.1693
     32 H1          1.9930    0.6048   -5.7354 H         1 <0>         0.1260
     33 H2          3.7910    2.1934   -5.1865 H         1 <0>         0.1322
     34 H3          5.7646    1.4340   -3.9269 H         1 <0>         0.1333
     35 H4          4.1383   -2.5157   -3.7749 H         1 <0>         0.1271
     36 H5          2.1679   -1.7481   -5.0345 H         1 <0>         0.1262
     37 H6          7.2282   -2.8597   -4.5958 H         1 <0>         0.1359
     38 H7          7.3851   -5.2491   -4.0315 H         1 <0>         0.1358
     39 H8          6.5004   -6.0715   -1.8878 H         1 <0>         0.1458
     40 H9          5.3028   -2.1013   -0.8567 H         1 <0>         0.1445
     41 H10         3.9362   -7.6607   -3.9068 H         1 <0>         0.1337
     42 H11         2.1241   -8.8400   -1.6347 H         1 <0>         0.1010
     43 H12         1.8001   -8.9497   -3.4471 H         1 <0>         0.1089
     44 H13         3.9887  -10.1926   -3.7630 H         1 <0>         0.1078
     45 H14         4.3126  -10.0829   -1.9507 H         1 <0>         0.1027
     46 H15         7.6200   -4.3706    0.0145 H         1 <0>         0.1429
     47 H16        10.0141   -5.0079    0.2467 H         1 <0>         0.1565
     48 H17        10.6163   -7.3178    0.6911 H         1 <0>         0.1742
     49 H18         8.8741   -8.9169    0.8909 H         1 <0>         0.4223
@<TRIPOS>BOND
     1    1    6 ar
     2    1    2 ar
     3    1   32 1
     4    2    3 ar
     5    2   33 1
     6    3    4 ar
     7    3   34 1
     8    4    5 ar
     9    4    7 1
    10    5    6 ar
    11    5   35 1
    12    6   36 1
    13    7    8 1
    14    8   13 ar
    15    8    9 ar
    16    9   10 ar
    17    9   37 1
    18   10   11 ar
    19   10   38 1
    20   11   12 ar
    21   11   39 1
    22   12   13 ar
    23   12   14 1
    24   13   40 1
    25   14   15 1
    26   15   16 1
    27   15   28 1
    28   15   21 1
    29   16   17 3
    30   17   18 1
    31   18   20 1
    32   18   19 1
    33   18   41 1
    34   19   20 1
    35   19   42 1
    36   19   43 1
    37   20   44 1
    38   20   45 1
    39   21   22 2
    40   21   26 1
    41   22   23 1
    42   22   46 1
    43   23   24 2
    44   23   47 1
    45   24   25 1
    46   24   48 1
    47   25   26 am
    48   25   49 1
    49   26   27 2
    50   28   29 1
    51   28   30 1
    52   28   31 1
@<TRIPOS>MOLECULE
CHEMBL106783
   44    46     0     0     0
SMALL
USER_CHARGES

@<TRIPOS>ATOM
      1 C1         -0.5441    0.5259    0.8926 C.ar      1 <0>        -0.1095
      2 C2          0.0296   -0.1291   -0.1810 C.ar      1 <0>        -0.1218
      3 C3          1.1814   -0.8721   -0.0022 C.ar      1 <0>        -0.0951
      4 C4          1.7599   -0.9597    1.2503 C.ar      1 <0>        -0.0923
      5 C5          1.1867   -0.3040    2.3238 C.ar      1 <0>        -0.0954
      6 C6          0.0340    0.4379    2.1452 C.ar      1 <0>        -0.1226
      7 C7          3.0151   -1.7705    1.4455 C.3       1 <0>         0.0809
      8 O1          4.1574   -0.9371    1.2391 O.3       1 <0>        -0.3355
      9 C8          5.4043   -1.5857    1.4974 C.3       1 <0>         0.2916
     10 C9          5.3910   -2.1512    2.8563 C.1       1 <0>        -0.1989
     11 C10         5.3804   -2.6022    3.9402 C.1       1 <0>        -0.0528
     12 C11         5.3675   -3.1523    5.2622 C.ar      1 <0>         0.0022
     13 C12         4.2383   -3.0095    6.0695 C.ar      1 <0>        -0.0915
     14 C13         4.2321   -3.5423    7.3422 C.ar      1 <0>        -0.1207
     15 C14         5.3421   -4.2170    7.8184 C.ar      1 <0>        -0.1048
     16 C15         6.4647   -4.3620    7.0230 C.ar      1 <0>        -0.1200
     17 C16         6.4818   -3.8385    5.7466 C.ar      1 <0>        -0.0847
     18 C17         6.5248   -0.5847    1.3808 C.2       1 <0>        -0.2451
     19 C18         6.2879    0.6589    0.8729 C.2       1 <0>         0.0481
     20 C19         7.3468    1.5724    0.7751 C.2       1 <0>        -0.2408
     21 C20         8.5871    1.2153    1.1827 C.2       1 <0>         0.1557
     22 N1          8.8211   -0.0231    1.6875 N.am      1 <0>        -0.6055
     23 C21         7.8235   -0.9207    1.7996 C.2       1 <0>         0.5275
     24 O2          8.0484   -2.0283    2.2606 O.2       1 <0>        -0.5209
     25 C22         5.6156   -2.7085    0.4798 C.3       1 <0>         0.4343
     26 F1          5.4860   -2.1949   -0.8150 F         1 <0>        -0.1702
     27 F2          6.8957   -3.2492    0.6410 F         1 <0>        -0.1534
     28 F3          4.6581   -3.7082    0.6829 F         1 <0>        -0.1777
     29 H1         -1.4416    1.1101    0.7520 H         1 <0>         0.1245
     30 H2         -0.4224   -0.0606   -1.1595 H         1 <0>         0.1259
     31 H3          1.6293   -1.3844   -0.8408 H         1 <0>         0.1249
     32 H4          1.6384   -0.3727    3.3023 H         1 <0>         0.1223
     33 H5         -0.4140    0.9499    2.9839 H         1 <0>         0.1251
     34 H6          3.0354   -2.1703    2.4593 H         1 <0>         0.0724
     35 H7          3.0313   -2.5929    0.7303 H         1 <0>         0.0797
     36 H8          3.3713   -2.4828    5.6991 H         1 <0>         0.1265
     37 H9          3.3589   -3.4322    7.9682 H         1 <0>         0.1299
     38 H10         5.3323   -4.6319    8.8154 H         1 <0>         0.1277
     39 H11         7.3281   -4.8897    7.4006 H         1 <0>         0.1300
     40 H12         7.3571   -3.9562    5.1250 H         1 <0>         0.1308
     41 H13         5.2956    0.9366    0.5493 H         1 <0>         0.1509
     42 H14         7.1731    2.5602    0.3745 H         1 <0>         0.1552
     43 H15         9.3993    1.9229    1.1052 H         1 <0>         0.1720
     44 H16         9.7162   -0.2627    1.9744 H         1 <0>         0.4212
@<TRIPOS>BOND
     1    1    6 ar
     2    1    2 ar
     3    1   29 1
     4    2    3 ar
     5    2   30 1
     6    3    4 ar
     7    3   31 1
     8    4    5 ar
     9    4    7 1
    10    5    6 ar
    11    5   32 1
    12    6   33 1
    13    7    8 1
    14    7   34 1
    15    7   35 1
    16    8    9 1
    17    9   10 1
    18    9   25 1
    19    9   18 1
    20   10   11 3
    21   11   12 1
    22   12   17 ar
    23   12   13 ar
    24   13   14 ar
    25   13   36 1
    26   14   15 ar
    27   14   37 1
    28   15   16 ar
    29   15   38 1
    30   16   17 ar
    31   16   39 1
    32   17   40 1
    33   18   19 2
    34   18   23 1
    35   19   20 1
    36   19   41 1
    37   20   21 2
    38   20   42 1
    39   21   22 1
    40   21   43 1
    41   22   23 am
    42   22   44 1
    43   23   24 2
    44   25   26 1
    45   25   27 1
    46   25   28 1
@<TRIPOS>MOLECULE
CHEMBL106783__1
   44    46     0     0     0
SMALL
USER_CHARGES

@<TRIPOS>ATOM
      1 C1          0.1002    1.1598    3.3903 C.ar      1 <0>        -0.1096
      2 C2          0.8159    0.3138    4.2167 C.ar      1 <0>        -0.1226
      3 C3          2.1154   -0.0306    3.8948 C.ar      1 <0>        -0.0955
      4 C4          2.6990    0.4707    2.7463 C.ar      1 <0>        -0.0923
      5 C5          1.9829    1.3160    1.9195 C.ar      1 <0>        -0.0952
      6 C6          0.6839    1.6615    2.2421 C.ar      1 <0>        -0.1218
      7 C7          4.1160    0.0960    2.3959 C.3       1 <0>         0.0803
      8 O1          4.1114   -1.0850    1.5914 O.3       1 <0>        -0.3357
      9 C8          5.4141   -1.5953    1.3008 C.3       1 <0>         0.2917
     10 C9          6.1523   -1.8009    2.5576 C.1       1 <0>        -0.1991
     11 C10         6.7410   -1.9648    3.5600 C.1       1 <0>        -0.0532
     12 C11         7.4591   -2.1647    4.7827 C.ar      1 <0>         0.0020
     13 C12         6.8555   -1.8704    6.0059 C.ar      1 <0>        -0.0914
     14 C13         7.5527   -2.0657    7.1804 C.ar      1 <0>        -0.1206
     15 C14         8.8474   -2.5522    7.1471 C.ar      1 <0>        -0.1047
     16 C15         9.4515   -2.8459    5.9377 C.ar      1 <0>        -0.1198
     17 C16         8.7633   -2.6600    4.7563 C.ar      1 <0>        -0.0849
     18 C17         5.2881   -2.9082    0.5717 C.2       1 <0>        -0.2449
     19 C18         4.0712   -3.3366    0.1288 C.2       1 <0>         0.0481
     20 C19         3.9802   -4.5614   -0.5472 C.2       1 <0>        -0.2407
     21 C20         5.0931   -5.3037   -0.7534 C.2       1 <0>         0.1555
     22 N1          6.3034   -4.8759   -0.3115 N.am      1 <0>        -0.6054
     23 C21         6.4241   -3.7013    0.3360 C.2       1 <0>         0.5267
     24 O2          7.5200   -3.3276    0.7224 O.2       1 <0>        -0.5206
     25 C22         6.1696   -0.5952    0.4233 C.3       1 <0>         0.4338
     26 F1          6.3838    0.5863    1.1413 F         1 <0>        -0.1780
     27 F2          7.4011   -1.1421    0.0471 F         1 <0>        -0.1519
     28 F3          5.4146   -0.3153   -0.7208 F         1 <0>        -0.1705
     29 H1         -0.9166    1.4253    3.6395 H         1 <0>         0.1244
     30 H2          0.3600   -0.0778    5.1140 H         1 <0>         0.1251
     31 H3          2.6748   -0.6910    4.5408 H         1 <0>         0.1222
     32 H4          2.4390    1.7079    1.0224 H         1 <0>         0.1249
     33 H5          0.1246    2.3222    1.5963 H         1 <0>         0.1259
     34 H6          4.5809    0.9114    1.8416 H         1 <0>         0.0806
     35 H7          4.6795   -0.0894    3.3103 H         1 <0>         0.0724
     36 H8          5.8450   -1.4903    6.0332 H         1 <0>         0.1266
     37 H9          7.0868   -1.8381    8.1278 H         1 <0>         0.1299
     38 H10         9.3890   -2.7030    8.0692 H         1 <0>         0.1277
     39 H11        10.4624   -3.2253    5.9184 H         1 <0>         0.1301
     40 H12         9.2344   -2.8939    3.8130 H         1 <0>         0.1308
     41 H13         3.1876   -2.7390    0.2974 H         1 <0>         0.1509
     42 H14         3.0228   -4.9125   -0.9029 H         1 <0>         0.1552
     43 H15         5.0174   -6.2465   -1.2748 H         1 <0>         0.1720
     44 H16         7.0907   -5.4207   -0.4672 H         1 <0>         0.4213
@<TRIPOS>BOND
     1    1    6 ar
     2    1    2 ar
     3    1   29 1
     4    2    3 ar
     5    2   30 1
     6    3    4 ar
     7    3   31 1
     8    4    5 ar
     9    4    7 1
    10    5    6 ar
    11    5   32 1
    12    6   33 1
    13    7    8 1
    14    7   34 1
    15    7   35 1
    16    8    9 1
    17    9   10 1
    18    9   25 1
    19    9   18 1
    20   10   11 3
    21   11   12 1
    22   12   17 ar
    23   12   13 ar
    24   13   14 ar
    25   13   36 1
    26   14   15 ar
    27   14   37 1
    28   15   16 ar
    29   15   38 1
    30   16   17 ar
    31   16   39 1
    32   17   40 1
    33   18   19 2
    34   18   23 1
    35   19   20 1
    36   19   41 1
    37   20   21 2
    38   20   42 1
    39   21   22 1
    40   21   43 1
    41   22   23 am
    42   22   44 1
    43   23   24 2
    44   25   26 1
    45   25   27 1
    46   25   28 1
@<TRIPOS>MOLECULE
CHEMBL141223
   37    40     0     0     0
SMALL
USER_CHARGES

@<TRIPOS>ATOM
      1 C1          0.0060    1.5269   -0.0026 C.3       1 <0>        -0.1542
      2 C2          0.0260   -0.0029   -0.0115 C.3       1 <0>        -0.1001
      3 C3          0.7421   -0.5109    1.2415 C.3       1 <0>         0.1830
      4 C4         -0.0321   -0.0927    2.4379 C.2       1 <0>         0.4230
      5 O1         -1.2301    0.0817    2.3413 O.2       1 <0>        -0.4302
      6 C5          0.5998    0.1058    3.6883 C.2       1 <0>        -0.0914
      7 C6         -0.0690    0.5903    4.8084 C.2       1 <0>        -0.0854
      8 C7          0.8771    0.7312    5.8210 C.2       1 <0>        -0.1997
      9 C8          2.0733    0.3311    5.3301 C.2       1 <0>         0.0335
     10 N1          1.9078   -0.1041    4.0457 N.pl3     1 <0>        -0.3599
     11 C9          2.9442   -0.7139    3.3228 C.ar      1 <0>         0.0850
     12 C10         3.9234   -1.4085    4.0248 C.ar      1 <0>        -0.1134
     13 C11         4.9708   -2.0085    3.3566 C.ar      1 <0>        -0.1022
     14 C12         5.0568   -1.9231    1.9789 C.ar      1 <0>        -0.0967
     15 C13         4.0875   -1.2422    1.2683 C.ar      1 <0>        -0.0982
     16 C14         3.0266   -0.6435    1.9288 C.ar      1 <0>         0.1059
     17 O2          2.0582   -0.0174    1.2428 O.3       1 <0>        -0.3018
     18 C15         0.7879   -2.0166    1.1972 C.2       1 <0>        -0.2057
     19 C16        -0.0478   -2.9134    1.7757 C.2       1 <0>        -0.1270
     20 C17         0.1900   -4.2633    1.5971 C.2       1 <0>        -0.1599
     21 C18         1.2519   -4.6503    0.8488 C.2       1 <0>        -0.1682
     22 S1          1.9523   -3.0818    0.3626 S.3       1 <0>         0.0869
     23 H1          1.0288    1.9036    0.0093 H         1 <0>         0.0644
     24 H2         -0.5041    1.8888   -0.8953 H         1 <0>         0.0668
     25 H3         -0.5210    1.8782    0.8845 H         1 <0>         0.0578
     26 H4         -0.9967   -0.3796   -0.0234 H         1 <0>         0.0972
     27 H5          0.5530   -0.3542   -0.8987 H         1 <0>         0.0835
     28 H6         -1.1230    0.8151    4.8792 H         1 <0>         0.1569
     29 H7          0.6895    1.0951    6.8204 H         1 <0>         0.1545
     30 H8          3.0096    0.3529    5.8679 H         1 <0>         0.1764
     31 H9          3.8638   -1.4784    5.1009 H         1 <0>         0.1363
     32 H10         5.7258   -2.5462    3.9110 H         1 <0>         0.1389
     33 H11         5.8814   -2.3881    1.4591 H         1 <0>         0.1404
     34 H12         4.1572   -1.1757    0.1926 H         1 <0>         0.1426
     35 H13        -0.8866   -2.5783    2.3676 H         1 <0>         0.1327
     36 H14        -0.4603   -4.9986    2.0474 H         1 <0>         0.1381
     37 H15         1.5853   -5.6485    0.6062 H         1 <0>         0.1900
@<TRIPOS>BOND
     1    1    2 1
     2    1   23 1
     3    1   24 1
     4    1   25 1
     5    2    3 1
     6    2   26 1
     7    2   27 1
     8    3   17 1
     9    3    4 1
    10    3   18 1
    11    4    5 2
    12    4    6 1
    13    6   10 1
    14    6    7 2
    15    7    8 1
    16    7   28 1
    17    8    9 2
    18    8   29 1
    19    9   10 1
    20    9   30 1
    21   10   11 1
    22   11   16 ar
    23   11   12 ar
    24   12   13 ar
    25   12   31 1
    26   13   14 ar
    27   13   32 1
    28   14   15 ar
    29   14   33 1
    30   15   16 ar
    31   15   34 1
    32   16   17 1
    33   18   22 1
    34   18   19 2
    35   19   20 1
    36   19   35 1
    37   20   21 2
    38   20   36 1
    39   21   22 1
    40   21   37 1
@<TRIPOS>MOLECULE
CHEMBL141223__1
   37    40     0     0     0
SMALL
USER_CHARGES

@<TRIPOS>ATOM
      1 C1         -1.2954   -0.7994   -0.1560 C.3       1 <0>        -0.1578
      2 C2          0.0021   -0.0041    0.0020 C.3       1 <0>        -0.1511
      3 C3          0.6951   -0.4121    1.3036 C.3       1 <0>         0.1822
      4 C4          2.0290    0.2381    1.3599 C.2       1 <0>         0.4130
      5 O1          2.9947   -0.3432    0.9077 O.2       1 <0>        -0.4234
      6 C5          2.1960    1.5223    1.9301 C.2       1 <0>        -0.0913
      7 C6          3.4397    2.1256    2.0911 C.2       1 <0>        -0.0834
      8 C7          3.2265    3.3331    2.7520 C.2       1 <0>        -0.1991
      9 C8          1.8964    3.4585    2.9687 C.2       1 <0>         0.0335
     10 N1          1.2503    2.3851    2.4239 N.pl3     1 <0>        -0.3632
     11 C9         -0.1493    2.3054    2.3643 C.ar      1 <0>         0.0789
     12 C10        -0.8790    3.4874    2.2985 C.ar      1 <0>        -0.1111
     13 C11        -2.2577    3.4573    2.2565 C.ar      1 <0>        -0.1035
     14 C12        -2.9279    2.2478    2.2807 C.ar      1 <0>        -0.0973
     15 C13        -2.2156    1.0657    2.3391 C.ar      1 <0>        -0.1087
     16 C14        -0.8304    1.0843    2.3727 C.ar      1 <0>         0.1140
     17 O2         -0.1301   -0.0602    2.3858 O.3       1 <0>        -0.3023
     18 C15         0.8853   -1.9070    1.3039 C.2       1 <0>        -0.1465
     19 C16         0.9154   -2.7635    2.3540 C.2       1 <0>        -0.1231
     20 C17         1.1043   -4.1117    2.1142 C.2       1 <0>        -0.1597
     21 C18         1.2538   -4.5374    0.8361 C.2       1 <0>        -0.1700
     22 S1          1.1218   -3.0104   -0.0795 S.3       1 <0>         0.0838
     23 H1         -1.9057   -0.6806    0.7393 H         1 <0>         0.0660
     24 H2         -1.8448   -0.4300   -1.0219 H         1 <0>         0.0676
     25 H3         -1.0600   -1.8542   -0.2979 H         1 <0>         0.0703
     26 H4          0.6608   -0.2123   -0.8411 H         1 <0>         0.0880
     27 H5         -0.2260    1.0614    0.0304 H         1 <0>         0.0796
     28 H6          4.3911    1.7316    1.7653 H         1 <0>         0.1573
     29 H7          3.9875    4.0432    3.0402 H         1 <0>         0.1549
     30 H8          1.4215    4.2766    3.4900 H         1 <0>         0.1769
     31 H9         -0.3627    4.4358    2.2805 H         1 <0>         0.1382
     32 H10        -2.8151    4.3809    2.2048 H         1 <0>         0.1400
     33 H11        -4.0074    2.2275    2.2545 H         1 <0>         0.1409
     34 H12        -2.7409    0.1223    2.3592 H         1 <0>         0.1442
     35 H13         0.7940   -2.3980    3.3630 H         1 <0>         0.1356
     36 H14         1.1327   -4.8152    2.9331 H         1 <0>         0.1372
     37 H15         1.4086   -5.5405    0.4670 H         1 <0>         0.1895
@<TRIPOS>BOND
     1    1    2 1
     2    1   23 1
     3    1   24 1
     4    1   25 1
     5    2    3 1
     6    2   26 1
     7    2   27 1
     8    3   17 1
     9    3    4 1
    10    3   18 1
    11    4    5 2
    12    4    6 1
    13    6   10 1
    14    6    7 2
    15    7    8 1
    16    7   28 1
    17    8    9 2
    18    8   29 1
    19    9   10 1
    20    9   30 1
    21   10   11 1
    22   11   16 ar
    23   11   12 ar
    24   12   13 ar
    25   12   31 1
    26   13   14 ar
    27   13   32 1
    28   14   15 ar
    29   14   33 1
    30   15   16 ar
    31   15   34 1
    32   16   17 1
    33   18   22 1
    34   18   19 2
    35   19   20 1
    36   19   35 1
    37   20   21 2
    38   20   36 1
    39   21   22 1
    40   21   37 1
@<TRIPOS>MOLECULE
CHEMBL350538
   53    57     0     0     0
SMALL
USER_CHARGES

@<TRIPOS>ATOM
      1 C1         -0.0184    1.5028    0.0103 C.3       1 <0>        -0.1170
      2 C2          0.0021   -0.0041    0.0020 C.ar      1 <0>        -0.0355
      3 C3          0.0061   -0.7052   -1.1952 C.ar      1 <0>        -0.1390
      4 C4          0.0284   -2.0860   -1.1691 C.ar      1 <0>         0.1884
      5 N1          0.0627   -2.7404   -0.0229 N.ar      1 <0>        -0.4672
      6 C5          0.0689   -2.1109    1.1438 C.ar      1 <0>         0.3849
      7 C6          0.0231   -0.7202    1.1949 C.ar      1 <0>         0.0897
      8 N2         -0.0518   -0.0298    2.4025 N.am      1 <0>        -0.6418
      9 C7          0.6009   -0.3121    3.5197 C.2       1 <0>         0.5806
     10 O1          0.4186    0.4228    4.4709 O.2       1 <0>        -0.5166
     11 C8          1.5239   -1.4352    3.7077 C.ar      1 <0>        -0.1931
     12 C9          2.6909   -1.2648    4.4617 C.ar      1 <0>         0.0185
     13 C10         3.5180   -2.3583    4.6505 C.ar      1 <0>        -0.1485
     14 C11         3.1691   -3.5780    4.0992 C.ar      1 <0>         0.1722
     15 N3          2.0725   -3.7135    3.3796 N.ar      1 <0>        -0.4873
     16 C12         1.2583   -2.6939    3.1483 C.ar      1 <0>         0.4217
     17 N4          0.1548   -2.8623    2.3162 N.pl3     1 <0>        -0.5527
     18 C13        -0.8988   -3.8209    2.6586 C.3       1 <0>         0.0988
     19 C14        -0.8472   -4.4613    4.0472 C.3       1 <0>        -0.1808
     20 C15        -0.4961   -5.2893    2.8094 C.3       1 <0>        -0.1783
     21 C16         4.7883   -2.2212    5.4495 C.3       1 <0>        -0.0655
     22 S1          4.4438   -2.5660    7.1968 S.3       1 <0>        -0.0761
     23 C17         6.0063   -2.3672    7.9866 C.ar      1 <0>        -0.0388
     24 C18         7.1393   -2.0123    7.2533 C.ar      1 <0>        -0.1972
     25 C19         8.3430   -1.8663    7.9094 C.ar      1 <0>         0.1551
     26 N5          8.4312   -2.0581    9.2126 N.ar      1 <0>        -0.4911
     27 C20         7.3831   -2.3945    9.9413 C.ar      1 <0>         0.1543
     28 C21         6.1420   -2.5547    9.3628 C.ar      1 <0>        -0.1619
     29 C22         7.5442   -2.6007   11.4254 C.3       1 <0>        -0.1063
     30 C23         9.5739   -1.4834    7.1289 C.3       1 <0>        -0.1067
     31 Cl1         0.0116   -2.9720   -2.6618 Cl        1 <0>        -0.0150
     32 H1          1.0042    1.8801    0.0026 H         1 <0>         0.0887
     33 H2         -0.5455    1.8639   -0.8728 H         1 <0>         0.0868
     34 H3         -0.5286    1.8543    0.9071 H         1 <0>         0.0736
     35 H4         -0.0083   -0.1772   -2.1372 H         1 <0>         0.1586
     36 H5         -0.6437    0.7383    2.4276 H         1 <0>         0.4146
     37 H6          2.9401   -0.3032    4.8857 H         1 <0>         0.1538
     38 H7          3.8065   -4.4348    4.2607 H         1 <0>         0.1716
     39 H8         -1.8818   -3.6093    2.2379 H         1 <0>         0.1304
     40 H9         -0.0293   -4.1694    4.7060 H         1 <0>         0.0924
     41 H10        -1.7964   -4.6710    4.5403 H         1 <0>         0.1055
     42 H11        -1.2143   -6.0437    2.4882 H         1 <0>         0.0990
     43 H12         0.5527   -5.5420    2.6539 H         1 <0>         0.1128
     44 H13         5.5291   -2.9295    5.0785 H         1 <0>         0.1080
     45 H14         5.1734   -1.2065    5.3485 H         1 <0>         0.1054
     46 H15         7.0742   -1.8546    6.1869 H         1 <0>         0.1339
     47 H16         5.2877   -2.8259    9.9654 H         1 <0>         0.1400
     48 H17         7.3758   -1.6568   11.9438 H         1 <0>         0.0819
     49 H18         6.8202   -3.3389   11.7703 H         1 <0>         0.0776
     50 H19         8.5531   -2.9556   11.6355 H         1 <0>         0.0805
     51 H20         9.6630   -0.3974    7.1006 H         1 <0>         0.0811
     52 H21        10.4554   -1.9079    7.6093 H         1 <0>         0.0809
     53 H22         9.4936   -1.8679    6.1121 H         1 <0>         0.0753
@<TRIPOS>BOND
     1    1    2 1
     2    1   32 1
     3    1   33 1
     4    1   34 1
     5    2    7 ar
     6    2    3 ar
     7    3    4 ar
     8    3   35 1
     9    4    5 ar
    10    4   31 1
    11    5    6 ar
    12    6   17 1
    13    6    7 ar
    14    7    8 1
    15    8    9 am
    16    8   36 1
    17    9   10 2
    18    9   11 1
    19   11   16 ar
    20   11   12 ar
    21   12   13 ar
    22   12   37 1
    23   13   14 ar
    24   13   21 1
    25   14   15 ar
    26   14   38 1
    27   15   16 ar
    28   16   17 1
    29   17   18 1
    30   18   20 1
    31   18   19 1
    32   18   39 1
    33   19   20 1
    34   19   40 1
    35   19   41 1
    36   20   42 1
    37   20   43 1
    38   21   22 1
    39   21   44 1
    40   21   45 1
    41   22   23 1
    42   23   28 ar
    43   23   24 ar
    44   24   25 ar
    45   24   46 1
    46   25   26 ar
    47   25   30 1
    48   26   27 ar
    49   27   28 ar
    50   27   29 1
    51   28   47 1
    52   29   48 1
    53   29   49 1
    54   29   50 1
    55   30   51 1
    56   30   52 1
    57   30   53 1
@<TRIPOS>MOLECULE
CHEMBL132977
   49    51     0     0     0
SMALL
USER_CHARGES

@<TRIPOS>ATOM
      1 C1          0.0425    0.7877    0.6024 C.3       1 <0>        -0.1443
      2 C2         -0.2545   -0.6690    0.2410 C.3       1 <0>        -0.0669
      3 C3         -1.7378   -0.8445    0.0408 C.2       1 <0>        -0.1694
      4 C4         -2.5804   -1.0838    1.1371 C.2       1 <0>         0.5552
      5 O1         -2.1174   -1.1513    2.2631 O.2       1 <0>        -0.4935
      6 N1         -3.9042   -1.2382    0.9385 N.am      1 <0>        -0.6565
      7 H1         -4.4877   -1.4037    1.6955 H         1 <0>         0.4344
      8 C5         -4.4240   -1.1645   -0.3002 C.2       1 <0>         0.7015
      9 O2         -5.6214   -1.3065   -0.4565 O.2       1 <0>        -0.5183
     10 N2         -3.6387   -0.9356   -1.3688 N.am      1 <0>        -0.5399
     11 C6         -2.2829   -0.7673   -1.2115 C.2       1 <0>         0.1174
     12 S1         -1.2566   -0.4609   -2.6107 S.3       1 <0>         0.0656
     13 C7         -1.2679   -1.9877   -3.4901 C.ar      1 <0>        -0.1269
     14 C8         -1.9601   -3.0794   -2.9809 C.ar      1 <0>        -0.1229
     15 C9         -1.9669   -4.2745   -3.6727 C.ar      1 <0>        -0.0973
     16 C10        -1.2857   -4.3854   -4.8712 C.ar      1 <0>        -0.1085
     17 C11        -0.5953   -3.3008   -5.3807 C.ar      1 <0>        -0.0981
     18 C12        -0.5895   -2.1010   -4.6972 C.ar      1 <0>        -0.0860
     19 C13        -4.2320   -0.8599   -2.7062 C.3       1 <0>         0.2705
     20 O3         -4.9159    0.3861   -2.8540 O.3       1 <0>        -0.3652
     21 C14        -4.0490    1.5061   -3.0438 C.3       1 <0>         0.0587
     22 C15        -4.8760    2.7931   -3.0670 C.3       1 <0>        -0.0786
     23 C16        -3.9617    3.9742   -3.2672 C.ar      1 <0>        -0.0848
     24 C17        -3.4111    4.6152   -2.1732 C.ar      1 <0>        -0.1142
     25 C18        -2.5724    5.6986   -2.3569 C.ar      1 <0>        -0.1169
     26 C19        -2.2840    6.1407   -3.6345 C.ar      1 <0>        -0.1198
     27 C20        -2.8339    5.4991   -4.7285 C.ar      1 <0>        -0.1173
     28 C21        -3.6692    4.4130   -4.5450 C.ar      1 <0>        -0.1130
     29 H2          1.1153    0.9147    0.7472 H         1 <0>         0.0685
     30 H3         -0.2948    1.4383   -0.2045 H         1 <0>         0.0537
     31 H4         -0.4815    1.0479    1.5221 H         1 <0>         0.0584
     32 H5          0.2695   -0.9292   -0.6787 H         1 <0>         0.0933
     33 H6          0.0828   -1.3196    1.0478 H         1 <0>         0.0890
     34 H7         -2.4919   -2.9935   -2.0449 H         1 <0>         0.1173
     35 H8         -2.5044   -5.1236   -3.2772 H         1 <0>         0.1302
     36 H9         -1.2926   -5.3213   -5.4102 H         1 <0>         0.1310
     37 H10        -0.0638   -3.3911   -6.3165 H         1 <0>         0.1346
     38 H11        -0.0544   -1.2529   -5.0982 H         1 <0>         0.1333
     39 H12        -3.4456   -0.9340   -3.4573 H         1 <0>         0.1003
     40 H13        -4.9382   -1.6798   -2.8374 H         1 <0>         0.1342
     41 H14        -3.3294    1.5512   -2.2263 H         1 <0>         0.0508
     42 H15        -3.5180    1.3983   -3.9896 H         1 <0>         0.0638
     43 H16        -5.5955    2.7479   -3.8845 H         1 <0>         0.0849
     44 H17        -5.4070    2.9008   -2.1212 H         1 <0>         0.0802
     45 H18        -3.6364    4.2698   -1.1751 H         1 <0>         0.1195
     46 H19        -2.1428    6.1999   -1.5021 H         1 <0>         0.1229
     47 H20        -1.6293    6.9876   -3.7779 H         1 <0>         0.1226
     48 H21        -2.6088    5.8447   -5.7266 H         1 <0>         0.1235
     49 H22        -4.0958    3.9094   -5.3998 H         1 <0>         0.1230
@<TRIPOS>BOND
     1    1    2 1
     2    1   29 1
     3    1   30 1
     4    1   31 1
     5    2    3 1
     6    2   32 1
     7    2   33 1
     8    3   11 2
     9    3    4 1
    10    4    5 2
    11    4    6 am
    12    6    7 1
    13    6    8 am
    14    8    9 2
    15    8   10 am
    16   10   11 1
    17   10   19 1
    18   11   12 1
    19   12   13 1
    20   13   18 ar
    21   13   14 ar
    22   14   15 ar
    23   14   34 1
    24   15   16 ar
    25   15   35 1
    26   16   17 ar
    27   16   36 1
    28   17   18 ar
    29   17   37 1
    30   18   38 1
    31   19   20 1
    32   19   39 1
    33   19   40 1
    34   20   21 1
    35   21   22 1
    36   21   41 1
    37   21   42 1
    38   22   23 1
    39   22   43 1
    40   22   44 1
    41   23   28 ar
    42   23   24 ar
    43   24   25 ar
    44   24   45 1
    45   25   26 ar
    46   25   46 1
    47   26   27 ar
    48   26   47 1
    49   27   28 ar
    50   27   48 1
    51   28   49 1
@<TRIPOS>MOLECULE
CHEMBL102113
   51    54     0     0     0
SMALL
USER_CHARGES

@<TRIPOS>ATOM
      1 C1         -0.0187    1.5258    0.0104 C.3       1 <0>        -0.1717
      2 C2          0.0021   -0.0041    0.0020 C.3       1 <0>         0.1347
      3 N1         -1.3723   -0.5112    0.0124 N.pl3     1 <0>        -0.5777
      4 C3         -2.0241   -0.7562    1.2210 C.ar      1 <0>         0.3787
      5 C4         -3.1924   -0.0728    1.5496 C.ar      1 <0>         0.0941
      6 C5         -3.8444   -0.3876    2.7377 C.ar      1 <0>        -0.0716
      7 C6         -3.2873   -1.3499    3.5676 C.ar      1 <0>        -0.1338
      8 C7         -2.1082   -1.9638    3.1927 C.ar      1 <0>         0.1849
      9 N2         -1.5189   -1.6578    2.0516 N.ar      1 <0>        -0.4681
     10 Cl1        -1.3916   -3.1524    4.2354 Cl        1 <0>        -0.0113
     11 N3         -3.6954    0.9509    0.7499 N.am      1 <0>        -0.5355
     12 C8         -3.7342    0.9793   -0.5741 C.2       1 <0>         0.5733
     13 O1         -4.2310    1.9594   -1.0944 O.2       1 <0>        -0.5177
     14 C9         -3.2291   -0.0691   -1.4660 C.ar      1 <0>        -0.1924
     15 C10        -2.0401   -0.7469   -1.1771 C.ar      1 <0>         0.4214
     16 N4         -1.5584   -1.6316   -2.0382 N.ar      1 <0>        -0.4927
     17 C11        -2.1937   -1.9343   -3.1534 C.ar      1 <0>         0.1608
     18 C12        -3.3989   -1.3379   -3.4760 C.ar      1 <0>        -0.1686
     19 C13        -3.9299   -0.3963   -2.6320 C.ar      1 <0>         0.0047
     20 C14        -4.1228   -1.7223   -4.7406 C.3       1 <0>        -0.0627
     21 C15        -5.0719   -2.8869   -4.4509 C.3       1 <0>        -0.1023
     22 C16        -5.7959   -3.2714   -5.7155 C.ar      1 <0>         0.0768
     23 C17        -7.0039   -2.6742   -6.0516 C.ar      1 <0>        -0.1678
     24 C18        -7.6417   -3.0481   -7.2171 C.ar      1 <0>         0.1518
     25 N5         -7.1184   -3.9626   -8.0117 N.ar      1 <0>        -0.5061
     26 C19        -5.9693   -4.5550   -7.7260 C.ar      1 <0>         0.4541
     27 C20        -5.2694   -4.2225   -6.5703 C.ar      1 <0>        -0.1986
     28 N6         -5.4547   -5.5134   -8.5913 N.pl3     1 <0>        -0.8215
     29 C21        -4.2393    2.1194    1.4464 C.3       1 <0>         0.0625
     30 H1          1.0039    1.9031    0.0027 H         1 <0>         0.0763
     31 H2         -0.5459    1.8868   -0.8726 H         1 <0>         0.0540
     32 H3         -0.5289    1.8773    0.9072 H         1 <0>         0.0555
     33 H4          0.5123   -0.3556   -0.8948 H         1 <0>         0.0861
     34 H5          0.5293   -0.3651    0.8851 H         1 <0>         0.0874
     35 H6         -4.7657    0.1068    3.0083 H         1 <0>         0.1605
     36 H7         -3.7704   -1.6162    4.4961 H         1 <0>         0.1607
     37 H8         -1.7650   -2.6616   -3.8270 H         1 <0>         0.1660
     38 H9         -4.8671    0.0859   -2.8678 H         1 <0>         0.1484
     39 H10        -4.6951   -0.8693   -5.1052 H         1 <0>         0.0876
     40 H11        -3.3981   -2.0237   -5.4969 H         1 <0>         0.0881
     41 H12        -4.4996   -3.7399   -4.0863 H         1 <0>         0.1020
     42 H13        -5.7966   -2.5856   -3.6946 H         1 <0>         0.1024
     43 H14        -7.4400   -1.9251   -5.4073 H         1 <0>         0.1814
     44 H15        -8.5815   -2.5865   -7.4820 H         1 <0>         0.2088
     45 H16        -4.3300   -4.7039   -6.3418 H         1 <0>         0.1800
     46 H17        -5.9370   -5.7456   -9.4002 H         1 <0>         0.4222
     47 H18        -4.6131   -5.9501   -8.3862 H         1 <0>         0.4409
     48 H19        -3.4467    2.8513    1.6018 H         1 <0>         0.0717
     49 H20        -5.0320    2.5644    0.8450 H         1 <0>         0.0963
     50 H21        -4.6439    1.8117    2.4106 H         1 <0>         0.0829
     51 H22        -7.5873   -4.2070   -8.8249 H         1 <0>         0.4433
@<TRIPOS>BOND
     1    1    2 1
     2    1   30 1
     3    1   31 1
     4    1   32 1
     5    2    3 1
     6    2   33 1
     7    2   34 1
     8    3   15 1
     9    3    4 1
    10    4    9 ar
    11    4    5 ar
    12    5    6 ar
    13    5   11 1
    14    6    7 ar
    15    6   35 1
    16    7    8 ar
    17    7   36 1
    18    8    9 ar
    19    8   10 1
    20   11   12 am
    21   11   29 1
    22   12   13 2
    23   12   14 1
    24   14   19 ar
    25   14   15 ar
    26   15   16 ar
    27   16   17 ar
    28   17   18 ar
    29   17   37 1
    30   18   19 ar
    31   18   20 1
    32   19   38 1
    33   20   21 1
    34   20   39 1
    35   20   40 1
    36   21   22 1
    37   21   41 1
    38   21   42 1
    39   22   27 ar
    40   22   23 ar
    41   23   24 ar
    42   23   43 1
    43   24   25 ar
    44   24   44 1
    45   25   26 ar
    46   25   51 1
    47   26   27 ar
    48   26   28 1
    49   27   45 1
    50   28   46 1
    51   28   47 1
    52   29   48 1
    53   29   49 1
    54   29   50 1
@<TRIPOS>MOLECULE
CHEMBL176463
   45    47     0     0     0
SMALL
USER_CHARGES

@<TRIPOS>ATOM
      1 C1         -0.0187    1.5258    0.0104 C.3       1 <0>        -0.1509
      2 C2          0.0021   -0.0041    0.0020 C.3       1 <0>        -0.0696
      3 C3         -1.4117   -0.5257    0.0127 C.2       1 <0>        -0.1926
      4 C4         -2.0970   -0.6703    1.2272 C.2       1 <0>        -0.0028
      5 C5         -3.3763   -1.1434    1.2188 C.2       1 <0>        -0.2133
      6 C6         -3.9789   -1.4753   -0.0066 C.2       1 <0>         0.5208
      7 N1         -3.2945   -1.3252   -1.1566 N.am      1 <0>        -0.6044
      8 C7         -2.0229   -0.8497   -1.1506 C.2       1 <0>         0.1592
      9 C8         -1.2820   -0.6862   -2.4527 C.3       1 <0>        -0.1314
     10 O1         -5.1230   -1.9001   -0.0285 O.2       1 <0>        -0.5470
     11 C9         -4.1353   -1.3089    2.5101 C.3       1 <0>        -0.0396
     12 C10        -4.9878   -0.0640    2.7638 C.3       1 <0>        -0.0429
     13 C11        -5.7469   -0.2295    4.0551 C.2       1 <0>         0.3001
     14 N2         -5.6510   -1.2808    4.7997 N.2       1 <0>        -0.5241
     15 C12        -6.5306   -1.0818    5.9603 C.3       1 <0>         0.0295
     16 C13        -7.1756   -2.3383    6.4470 C.3       1 <0>        -0.0976
     17 C14        -8.4194   -2.7711    5.6988 C.3       1 <0>        -0.1195
     18 C15        -9.3665   -1.5906    5.4961 C.3       1 <0>        -0.1166
     19 C16        -8.6401   -0.5215    4.6805 C.3       1 <0>        -0.1373
     20 C17        -7.4655    0.0342    5.4852 C.3       1 <0>         0.0606
     21 O2         -6.5845    0.7090    4.5425 O.3       1 <0>        -0.3471
     22 H1          1.0039    1.9031    0.0027 H         1 <0>         0.0593
     23 H2         -0.5459    1.8868   -0.8726 H         1 <0>         0.0543
     24 H3         -0.5289    1.8773    0.9072 H         1 <0>         0.0567
     25 H4          0.5123   -0.3556   -0.8948 H         1 <0>         0.0744
     26 H5          0.5293   -0.3651    0.8851 H         1 <0>         0.0752
     27 H6         -1.6171   -0.4103    2.1592 H         1 <0>         0.1359
     28 H7         -0.7486   -1.6078   -2.6854 H         1 <0>         0.0905
     29 H8         -1.9923   -0.4663   -3.2498 H         1 <0>         0.0775
     30 H9         -0.5693    0.1338   -2.3648 H         1 <0>         0.0964
     31 H10        -3.7160   -1.5564   -1.9991 H         1 <0>         0.4138
     32 H11        -4.7815   -2.1841    2.4421 H         1 <0>         0.0880
     33 H12        -3.4309   -1.4404    3.3314 H         1 <0>         0.0831
     34 H13        -4.3416    0.8112    2.8318 H         1 <0>         0.0941
     35 H14        -5.6923    0.0675    1.9425 H         1 <0>         0.0977
     36 H15        -5.9242   -0.6879    6.7759 H         1 <0>         0.0814
     37 H16        -6.4433   -3.1434    6.3857 H         1 <0>         0.0774
     38 H17        -7.4385   -2.2025    7.4960 H         1 <0>         0.0657
     39 H18        -8.1323   -3.1719    4.7267 H         1 <0>         0.0638
     40 H19        -8.9299   -3.5469    6.2695 H         1 <0>         0.0689
     41 H20       -10.2545   -1.9216    4.9576 H         1 <0>         0.0717
     42 H21        -9.6533   -1.1806    6.4645 H         1 <0>         0.0669
     43 H22        -8.2692   -0.9616    3.7549 H         1 <0>         0.0712
     44 H23        -9.3322    0.2868    4.4444 H         1 <0>         0.0750
     45 H24        -7.7925    0.6785    6.3014 H         1 <0>         0.1277
@<TRIPOS>BOND
     1    1    2 1
     2    1   22 1
     3    1   23 1
     4    1   24 1
     5    2   25 1
     6    2   26 1
     7    2    3 1
     8    3    8 2
     9    3    4 1
    10    4   27 1
    11    4    5 2
    12    5    6 1
    13    5   11 1
    14    6   10 2
    15    6    7 am
    16    7   31 1
    17    7    8 1
    18    8    9 1
    19    9   28 1
    20    9   29 1
    21    9   30 1
    22   11   12 1
    23   11   32 1
    24   11   33 1
    25   12   13 1
    26   12   34 1
    27   12   35 1
    28   13   21 1
    29   13   14 2
    30   14   15 1
    31   15   20 1
    32   15   16 1
    33   15   36 1
    34   16   17 1
    35   16   37 1
    36   16   38 1
    37   17   18 1
    38   17   39 1
    39   17   40 1
    40   18   19 1
    41   18   41 1
    42   18   42 1
    43   19   20 1
    44   19   43 1
    45   19   44 1
    46   20   21 1
    47   20   45 1
@<TRIPOS>MOLECULE
CHEMBL176463__1
   45    47     0     0     0
SMALL
USER_CHARGES

@<TRIPOS>ATOM
      1 C1         -0.0187    1.5258    0.0104 C.3       1 <0>        -0.1509
      2 C2          0.0021   -0.0041    0.0020 C.3       1 <0>        -0.0696
      3 C3         -1.4117   -0.5257    0.0127 C.2       1 <0>        -0.1928
      4 C4         -2.0970   -0.6703    1.2272 C.2       1 <0>        -0.0023
      5 C5         -3.3763   -1.1434    1.2188 C.2       1 <0>        -0.2135
      6 C6         -3.9789   -1.4753   -0.0066 C.2       1 <0>         0.5208
      7 N1         -3.2945   -1.3252   -1.1566 N.am      1 <0>        -0.6043
      8 C7         -2.0229   -0.8497   -1.1506 C.2       1 <0>         0.1595
      9 C8         -1.2820   -0.6862   -2.4527 C.3       1 <0>        -0.1315
     10 O1         -5.1230   -1.9001   -0.0285 O.2       1 <0>        -0.5471
     11 C9         -4.1353   -1.3089    2.5101 C.3       1 <0>        -0.0405
     12 C10        -4.9878   -0.0640    2.7638 C.3       1 <0>        -0.0426
     13 C11        -5.7469   -0.2295    4.0551 C.2       1 <0>         0.2968
     14 N2         -5.6548   -1.2889    4.8124 N.2       1 <0>        -0.5162
     15 C12        -6.5010   -1.0464    5.9685 C.3       1 <0>         0.0150
     16 C13        -7.3352   -2.1795    6.5272 C.3       1 <0>        -0.0986
     17 C14        -8.1325   -1.5915    7.7080 C.3       1 <0>        -0.1222
     18 C15        -8.9951   -0.4115    7.2729 C.3       1 <0>        -0.1177
     19 C16        -8.1734    0.6622    6.5377 C.3       1 <0>        -0.1044
     20 C17        -7.5067   -0.0199    5.3642 C.3       1 <0>         0.0371
     21 O2         -6.5960    0.7157    4.5544 O.3       1 <0>        -0.3344
     22 H1          1.0039    1.9031    0.0027 H         1 <0>         0.0593
     23 H2         -0.5459    1.8868   -0.8726 H         1 <0>         0.0543
     24 H3         -0.5289    1.8773    0.9072 H         1 <0>         0.0567
     25 H4          0.5123   -0.3556   -0.8948 H         1 <0>         0.0744
     26 H5          0.5293   -0.3651    0.8851 H         1 <0>         0.0752
     27 H6         -1.6171   -0.4103    2.1592 H         1 <0>         0.1361
     28 H7         -0.7486   -1.6078   -2.6854 H         1 <0>         0.0905
     29 H8         -1.9923   -0.4663   -3.2498 H         1 <0>         0.0775
     30 H9         -0.5693    0.1338   -2.3648 H         1 <0>         0.0964
     31 H10        -3.7160   -1.5564   -1.9991 H         1 <0>         0.4139
     32 H11        -4.7815   -2.1841    2.4421 H         1 <0>         0.0884
     33 H12        -3.4309   -1.4404    3.3314 H         1 <0>         0.0836
     34 H13        -4.3416    0.8112    2.8318 H         1 <0>         0.0962
     35 H14        -5.6923    0.0675    1.9425 H         1 <0>         0.0994
     36 H15        -5.9203   -0.5756    6.7618 H         1 <0>         0.0910
     37 H16        -8.0180   -2.5528    5.7640 H         1 <0>         0.0696
     38 H17        -6.6876   -2.9835    6.8768 H         1 <0>         0.0773
     39 H18        -8.7750   -2.3672    8.1246 H         1 <0>         0.0727
     40 H19        -7.4354   -1.2581    8.4768 H         1 <0>         0.0653
     41 H20        -9.7811   -0.7724    6.6096 H         1 <0>         0.0661
     42 H21        -9.4548    0.0357    8.1543 H         1 <0>         0.0760
     43 H22        -8.8310    1.4555    6.1824 H         1 <0>         0.0779
     44 H23        -7.4180    1.0751    7.2062 H         1 <0>         0.0759
     45 H24        -8.2502   -0.5306    4.7522 H         1 <0>         0.0857
@<TRIPOS>BOND
     1    1    2 1
     2    1   22 1
     3    1   23 1
     4    1   24 1
     5    2   25 1
     6    2   26 1
     7    2    3 1
     8    3    8 2
     9    3    4 1
    10    4   27 1
    11    4    5 2
    12    5    6 1
    13    5   11 1
    14    6   10 2
    15    6    7 am
    16    7   31 1
    17    7    8 1
    18    8    9 1
    19    9   28 1
    20    9   29 1
    21    9   30 1
    22   11   12 1
    23   11   32 1
    24   11   33 1
    25   12   13 1
    26   12   34 1
    27   12   35 1
    28   13   21 1
    29   13   14 2
    30   14   15 1
    31   15   20 1
    32   15   16 1
    33   15   36 1
    34   16   17 1
    35   16   37 1
    36   16   38 1
    37   17   18 1
    38   17   39 1
    39   17   40 1
    40   18   19 1
    41   18   41 1
    42   18   42 1
    43   19   20 1
    44   19   43 1
    45   19   44 1
    46   20   21 1
    47   20   45 1
@<TRIPOS>MOLECULE
CHEMBL176463__2
   45    47     0     0     0
SMALL
USER_CHARGES

@<TRIPOS>ATOM
      1 C1         -0.0187    1.5258    0.0104 C.3       1 <0>        -0.1509
      2 C2          0.0021   -0.0041    0.0020 C.3       1 <0>        -0.0695
      3 C3         -1.4117   -0.5257    0.0127 C.2       1 <0>        -0.1932
      4 C4         -2.0970   -0.6703    1.2272 C.2       1 <0>        -0.0027
      5 C5         -3.3763   -1.1434    1.2188 C.2       1 <0>        -0.2132
      6 C6         -3.9789   -1.4753   -0.0066 C.2       1 <0>         0.5206
      7 N1         -3.2945   -1.3252   -1.1566 N.am      1 <0>        -0.6044
      8 C7         -2.0229   -0.8497   -1.1506 C.2       1 <0>         0.1598
      9 C8         -1.2820   -0.6862   -2.4527 C.3       1 <0>        -0.1316
     10 O1         -5.1230   -1.9001   -0.0285 O.2       1 <0>        -0.5461
     11 C9         -4.1353   -1.3089    2.5101 C.3       1 <0>        -0.0406
     12 C10        -4.9878   -0.0640    2.7638 C.3       1 <0>        -0.0425
     13 C11        -5.7469   -0.2295    4.0551 C.2       1 <0>         0.2974
     14 N2         -5.6548   -1.2889    4.8124 N.2       1 <0>        -0.5163
     15 C12        -6.5592   -1.0789    5.9302 C.3       1 <0>         0.0140
     16 C13        -6.1348   -1.5099    7.3181 C.3       1 <0>        -0.0974
     17 C14        -7.2858   -1.1192    8.2657 C.3       1 <0>        -0.1228
     18 C15        -7.5859    0.3747    8.2013 C.3       1 <0>        -0.1171
     19 C16        -7.8372    0.8497    6.7592 C.3       1 <0>        -0.1050
     20 C17        -6.6124    0.4791    5.9534 C.3       1 <0>         0.0380
     21 O2         -6.5960    0.7157    4.5544 O.3       1 <0>        -0.3339
     22 H1          1.0039    1.9031    0.0027 H         1 <0>         0.0592
     23 H2         -0.5459    1.8868   -0.8726 H         1 <0>         0.0543
     24 H3         -0.5289    1.8773    0.9072 H         1 <0>         0.0566
     25 H4          0.5123   -0.3556   -0.8948 H         1 <0>         0.0744
     26 H5          0.5293   -0.3651    0.8851 H         1 <0>         0.0751
     27 H6         -1.6171   -0.4103    2.1592 H         1 <0>         0.1357
     28 H7         -0.7486   -1.6078   -2.6854 H         1 <0>         0.0906
     29 H8         -1.9923   -0.4663   -3.2498 H         1 <0>         0.0776
     30 H9         -0.5693    0.1338   -2.3648 H         1 <0>         0.0964
     31 H10        -3.7160   -1.5564   -1.9991 H         1 <0>         0.4140
     32 H11        -4.7815   -2.1841    2.4421 H         1 <0>         0.0893
     33 H12        -3.4309   -1.4404    3.3314 H         1 <0>         0.0828
     34 H13        -4.3416    0.8112    2.8318 H         1 <0>         0.0960
     35 H14        -5.6923    0.0675    1.9425 H         1 <0>         0.0998
     36 H15        -7.5438   -1.4814    5.6922 H         1 <0>         0.0911
     37 H16        -5.9793   -2.5884    7.3435 H         1 <0>         0.0773
     38 H17        -5.2203   -0.9920    7.6071 H         1 <0>         0.0690
     39 H18        -8.1811   -1.6741    7.9855 H         1 <0>         0.0656
     40 H19        -7.0107   -1.3829    9.2869 H         1 <0>         0.0727
     41 H20        -8.4702    0.5850    8.8030 H         1 <0>         0.0760
     42 H21        -6.7397    0.9245    8.6133 H         1 <0>         0.0658
     43 H22        -8.7161    0.3509    6.3510 H         1 <0>         0.0761
     44 H23        -7.9802    1.9302    6.7430 H         1 <0>         0.0779
     45 H24        -5.7154    0.8835    6.4222 H         1 <0>         0.0840
@<TRIPOS>BOND
     1    1    2 1
     2    1   22 1
     3    1   23 1
     4    1   24 1
     5    2   25 1
     6    2   26 1
     7    2    3 1
     8    3    8 2
     9    3    4 1
    10    4   27 1
    11    4    5 2
    12    5    6 1
    13    5   11 1
    14    6   10 2
    15    6    7 am
    16    7   31 1
    17    7    8 1
    18    8    9 1
    19    9   28 1
    20    9   29 1
    21    9   30 1
    22   11   12 1
    23   11   32 1
    24   11   33 1
    25   12   13 1
    26   12   34 1
    27   12   35 1
    28   13   21 1
    29   13   14 2
    30   14   15 1
    31   15   20 1
    32   15   16 1
    33   15   36 1
    34   16   17 1
    35   16   37 1
    36   16   38 1
    37   17   18 1
    38   17   39 1
    39   17   40 1
    40   18   19 1
    41   18   41 1
    42   18   42 1
    43   19   20 1
    44   19   43 1
    45   19   44 1
    46   20   21 1
    47   20   45 1
@<TRIPOS>MOLECULE
CHEMBL176463__3
   45    47     0     0     0
SMALL
USER_CHARGES

@<TRIPOS>ATOM
      1 C1         -0.0187    1.5258    0.0104 C.3       1 <0>        -0.1508
      2 C2          0.0021   -0.0041    0.0020 C.3       1 <0>        -0.0695
      3 C3         -1.4117   -0.5257    0.0127 C.2       1 <0>        -0.1930
      4 C4         -2.0970   -0.6703    1.2272 C.2       1 <0>        -0.0030
      5 C5         -3.3763   -1.1434    1.2188 C.2       1 <0>        -0.2130
      6 C6         -3.9789   -1.4753   -0.0066 C.2       1 <0>         0.5206
      7 N1         -3.2945   -1.3252   -1.1566 N.am      1 <0>        -0.6045
      8 C7         -2.0229   -0.8497   -1.1506 C.2       1 <0>         0.1595
      9 C8         -1.2820   -0.6862   -2.4527 C.3       1 <0>        -0.1315
     10 O1         -5.1230   -1.9001   -0.0285 O.2       1 <0>        -0.5462
     11 C9         -4.1353   -1.3089    2.5101 C.3       1 <0>        -0.0397
     12 C10        -4.9878   -0.0640    2.7638 C.3       1 <0>        -0.0428
     13 C11        -5.7469   -0.2295    4.0551 C.2       1 <0>         0.3006
     14 N2         -5.6510   -1.2808    4.7997 N.2       1 <0>        -0.5242
     15 C12        -6.5269   -1.0798    5.9627 C.3       1 <0>         0.0287
     16 C13        -5.9976   -1.6808    7.2237 C.3       1 <0>        -0.0978
     17 C14        -4.9752   -0.8486    7.9698 C.3       1 <0>        -0.1182
     18 C15        -5.4392    0.6016    8.0856 C.3       1 <0>        -0.1174
     19 C16        -5.6123    1.1686    6.6769 C.3       1 <0>        -0.1358
     20 C17        -6.7459    0.4359    5.9598 C.3       1 <0>         0.0603
     21 O2         -6.5845    0.7090    4.5425 O.3       1 <0>        -0.3463
     22 H1          1.0039    1.9031    0.0027 H         1 <0>         0.0592
     23 H2         -0.5459    1.8868   -0.8726 H         1 <0>         0.0543
     24 H3         -0.5289    1.8773    0.9072 H         1 <0>         0.0565
     25 H4          0.5123   -0.3556   -0.8948 H         1 <0>         0.0744
     26 H5          0.5293   -0.3651    0.8851 H         1 <0>         0.0750
     27 H6         -1.6171   -0.4103    2.1592 H         1 <0>         0.1354
     28 H7         -0.7486   -1.6078   -2.6854 H         1 <0>         0.0905
     29 H8         -1.9923   -0.4663   -3.2498 H         1 <0>         0.0775
     30 H9         -0.5693    0.1338   -2.3648 H         1 <0>         0.0964
     31 H10        -3.7160   -1.5564   -1.9991 H         1 <0>         0.4139
     32 H11        -4.7815   -2.1841    2.4421 H         1 <0>         0.0889
     33 H12        -3.4309   -1.4404    3.3314 H         1 <0>         0.0822
     34 H13        -4.3416    0.8112    2.8318 H         1 <0>         0.0942
     35 H14        -5.6923    0.0675    1.9425 H         1 <0>         0.0977
     36 H15        -7.4827   -1.5578    5.7482 H         1 <0>         0.0817
     37 H16        -6.8384   -1.8674    7.8918 H         1 <0>         0.0659
     38 H17        -5.5430   -2.6409    6.9794 H         1 <0>         0.0776
     39 H18        -4.8361   -1.2618    8.9688 H         1 <0>         0.0688
     40 H19        -4.0266   -0.8802    7.4338 H         1 <0>         0.0627
     41 H20        -6.3909    0.6404    8.6156 H         1 <0>         0.0672
     42 H21        -4.6920    1.1833    8.6253 H         1 <0>         0.0714
     43 H22        -5.8502    2.2304    6.7404 H         1 <0>         0.0749
     44 H23        -4.6858    1.0386    6.1176 H         1 <0>         0.0696
     45 H24        -7.7265    0.7153    6.3449 H         1 <0>         0.1278
@<TRIPOS>BOND
     1    1    2 1
     2    1   22 1
     3    1   23 1
     4    1   24 1
     5    2   25 1
     6    2   26 1
     7    2    3 1
     8    3    8 2
     9    3    4 1
    10    4   27 1
    11    4    5 2
    12    5    6 1
    13    5   11 1
    14    6   10 2
    15    6    7 am
    16    7   31 1
    17    7    8 1
    18    8    9 1
    19    9   28 1
    20    9   29 1
    21    9   30 1
    22   11   12 1
    23   11   32 1
    24   11   33 1
    25   12   13 1
    26   12   34 1
    27   12   35 1
    28   13   21 1
    29   13   14 2
    30   14   15 1
    31   15   20 1
    32   15   16 1
    33   15   36 1
    34   16   17 1
    35   16   37 1
    36   16   38 1
    37   17   18 1
    38   17   39 1
    39   17   40 1
    40   18   19 1
    41   18   41 1
    42   18   42 1
    43   19   20 1
    44   19   43 1
    45   19   44 1
    46   20   21 1
    47   20   45 1
@<TRIPOS>MOLECULE
CHEMBL69657
   43    45     0     0     0
SMALL
USER_CHARGES

@<TRIPOS>ATOM
      1 C1         -0.0187    1.5258    0.0104 C.3       1 <0>        -0.1521
      2 C2          0.0021   -0.0041    0.0020 C.3       1 <0>         0.0575
      3 O1          0.6709   -0.4649   -1.1737 O.3       1 <0>        -0.3821
      4 C3          0.7457   -1.8880   -1.2798 C.3       1 <0>         0.0654
      5 C4          1.4779   -2.2655   -2.5691 C.3       1 <0>         0.0515
      6 O2          2.8337   -1.8202   -2.4948 O.3       1 <0>        -0.3580
      7 C5          3.6098   -2.1246   -3.6554 C.3       1 <0>         0.2606
      8 N1          3.3236   -1.1438   -4.7053 N.am      1 <0>        -0.5420
      9 C6          2.5201   -1.5223   -5.7802 C.2       1 <0>         0.1538
     10 C7          2.3052   -0.6287   -6.7652 C.2       1 <0>        -0.2345
     11 C8          2.8489    0.6773   -6.6143 C.2       1 <0>         0.5541
     12 O3          2.6404    1.5137   -7.4768 O.2       1 <0>        -0.5107
     13 N2          3.5839    1.0075   -5.5457 N.am      1 <0>        -0.6546
     14 H1          3.9303    1.9088   -5.4528 H         1 <0>         0.4339
     15 C9          3.8369    0.0858   -4.5981 C.2       1 <0>         0.7055
     16 O4          4.5367    0.3706   -3.6455 O.2       1 <0>        -0.5190
     17 C10         1.5906   -0.8268   -8.0720 C.3       1 <0>         0.2129
     18 N3          0.8387   -2.0439   -8.1981 N.pl3     1 <0>        -0.7751
     19 C11         1.4451   -3.2824   -8.3394 C.ar      1 <0>         0.2094
     20 C12         1.4478   -3.9282   -9.5714 C.ar      1 <0>        -0.1311
     21 C13         2.1231   -5.1260   -9.7145 C.ar      1 <0>        -0.0778
     22 C14         2.7994   -5.6832   -8.6446 C.ar      1 <0>        -0.1289
     23 C15         2.7757   -5.0594   -7.4088 C.ar      1 <0>        -0.0531
     24 C16         2.0673   -3.8789   -7.2587 C.ar      1 <0>        -0.1706
     25 S1          1.8585   -3.1448   -5.6752 S.3       1 <0>         0.0573
     26 H2          1.0039    1.9031    0.0027 H         1 <0>         0.0639
     27 H3         -0.5459    1.8868   -0.8726 H         1 <0>         0.0614
     28 H4         -0.5289    1.8773    0.9072 H         1 <0>         0.0719
     29 H5          0.5293   -0.3651    0.8851 H         1 <0>         0.0496
     30 H6         -1.0205   -0.3814    0.0098 H         1 <0>         0.0476
     31 H7          1.2883   -2.2882   -0.4233 H         1 <0>         0.0617
     32 H8         -0.2614   -2.3044   -1.2986 H         1 <0>         0.0672
     33 H9          1.4574   -3.3481   -2.6949 H         1 <0>         0.0759
     34 H10         0.9858   -1.7917   -3.4184 H         1 <0>         0.0579
     35 H11         4.6697   -2.0883   -3.4035 H         1 <0>         0.1354
     36 H12         3.3550   -3.1228   -4.0114 H         1 <0>         0.1121
     37 H13         0.9086    0.0110   -8.2173 H         1 <0>         0.1042
     38 H14         2.3303   -0.7994   -8.8720 H         1 <0>         0.0749
     39 H15        -0.1301   -1.9975   -8.1842 H         1 <0>         0.4053
     40 H16         0.9248   -3.4962  -10.4117 H         1 <0>         0.1347
     41 H17         2.1221   -5.6307  -10.6693 H         1 <0>         0.1322
     42 H18         3.3466   -6.6054   -8.7732 H         1 <0>         0.1344
     43 H19         3.3037   -5.4893   -6.5705 H         1 <0>         0.1374
@<TRIPOS>BOND
     1    1    2 1
     2    1   26 1
     3    1   27 1
     4    1   28 1
     5    2    3 1
     6    2   29 1
     7    2   30 1
     8    3    4 1
     9    4    5 1
    10    4   31 1
    11    4   32 1
    12    5    6 1
    13    5   33 1
    14    5   34 1
    15    6    7 1
    16    7    8 1
    17    7   35 1
    18    7   36 1
    19    8   15 am
    20    8    9 1
    21    9   25 1
    22    9   10 2
    23   10   11 1
    24   10   17 1
    25   11   12 2
    26   11   13 am
    27   13   14 1
    28   13   15 am
    29   15   16 2
    30   17   18 1
    31   17   37 1
    32   17   38 1
    33   18   19 1
    34   18   39 1
    35   19   24 ar
    36   19   20 ar
    37   20   21 ar
    38   20   40 1
    39   21   22 ar
    40   21   41 1
    41   22   23 ar
    42   22   42 1
    43   23   24 ar
    44   23   43 1
    45   24   25 1
@<TRIPOS>MOLECULE
CHEMBL328168
   48    51     0     0     0
SMALL
USER_CHARGES

@<TRIPOS>ATOM
      1 C1         -0.0187    1.5258    0.0104 C.3       1 <0>        -0.1707
      2 C2          0.0021   -0.0041    0.0020 C.3       1 <0>         0.1380
      3 N1         -1.3723   -0.5112    0.0124 N.pl3     1 <0>        -0.5740
      4 C3         -2.0240   -0.7560    1.2207 C.ar      1 <0>         0.3873
      5 C4         -3.1922   -0.0725    1.5494 C.ar      1 <0>         0.0950
      6 C5         -3.8442   -0.3870    2.7373 C.ar      1 <0>        -0.0736
      7 C6         -3.2874   -1.3496    3.5673 C.ar      1 <0>        -0.1393
      8 C7         -2.1085   -1.9637    3.1924 C.ar      1 <0>         0.1839
      9 N2         -1.5190   -1.6579    2.0513 N.ar      1 <0>        -0.4707
     10 Cl1        -1.3926   -3.1530    4.2349 Cl        1 <0>        -0.0194
     11 N3         -3.6950    0.9513    0.7494 N.am      1 <0>        -0.5363
     12 C8         -3.7341    0.9796   -0.5744 C.2       1 <0>         0.5753
     13 O1         -4.2306    1.9601   -1.0943 O.2       1 <0>        -0.5189
     14 C9         -3.2302   -0.0689   -1.4672 C.ar      1 <0>        -0.1431
     15 C10        -2.0415   -0.7474   -1.1797 C.ar      1 <0>         0.3496
     16 N4         -1.5584   -1.6322   -2.0391 N.ar      1 <0>        -0.4549
     17 C11        -2.1905   -1.9384   -3.1551 C.ar      1 <0>         0.0813
     18 C12        -3.4010   -1.3406   -3.4811 C.ar      1 <0>         0.1566
     19 C13        -3.9334   -0.3945   -2.6323 C.ar      1 <0>        -0.0845
     20 N5         -4.0735   -1.6982   -4.6563 N.pl3     1 <0>        -0.7344
     21 C14        -3.5006   -2.7081   -5.5497 C.3       1 <0>         0.1640
     22 C15        -4.4128   -2.9078   -6.7325 C.ar      1 <0>        -0.1121
     23 C16        -5.4192   -3.8539   -6.6773 C.ar      1 <0>        -0.0994
     24 C17        -6.2559   -4.0371   -7.7622 C.ar      1 <0>        -0.1220
     25 C18        -6.0866   -3.2739   -8.9023 C.ar      1 <0>        -0.1094
     26 C19        -5.0809   -2.3272   -8.9572 C.ar      1 <0>        -0.1218
     27 C20        -4.2468   -2.1410   -7.8706 C.ar      1 <0>        -0.0989
     28 C21        -4.2383    2.1200    1.4459 C.3       1 <0>         0.0641
     29 H1          1.0039    1.9031    0.0027 H         1 <0>         0.0716
     30 H2         -0.5459    1.8868   -0.8726 H         1 <0>         0.0548
     31 H3         -0.5289    1.8773    0.9072 H         1 <0>         0.0529
     32 H4          0.5123   -0.3556   -0.8948 H         1 <0>         0.0841
     33 H5          0.5293   -0.3651    0.8851 H         1 <0>         0.0821
     34 H6         -4.7650    0.1082    3.0083 H         1 <0>         0.1581
     35 H7         -3.7703   -1.6153    4.4961 H         1 <0>         0.1573
     36 H8         -1.7596   -2.6659   -3.8270 H         1 <0>         0.1631
     37 H9         -4.8707    0.0884   -2.8663 H         1 <0>         0.1453
     38 H10        -4.9186   -1.2772   -4.8787 H         1 <0>         0.4052
     39 H11        -2.5232   -2.3734   -5.8971 H         1 <0>         0.0732
     40 H12        -3.3921   -3.6497   -5.0115 H         1 <0>         0.0729
     41 H13        -5.5514   -4.4502   -5.7866 H         1 <0>         0.1241
     42 H14        -7.0417   -4.7768   -7.7193 H         1 <0>         0.1250
     43 H15        -6.7399   -3.4176   -9.7502 H         1 <0>         0.1243
     44 H16        -4.9484   -1.7311   -9.8480 H         1 <0>         0.1252
     45 H17        -3.4634   -1.3987   -7.9122 H         1 <0>         0.1246
     46 H18        -3.4454    2.8517    1.6009 H         1 <0>         0.0693
     47 H19        -5.0310    2.5652    0.8446 H         1 <0>         0.0949
     48 H20        -4.6428    1.8127    2.4103 H         1 <0>         0.0807
@<TRIPOS>BOND
     1    1    2 1
     2    1   29 1
     3    1   30 1
     4    1   31 1
     5    2    3 1
     6    2   32 1
     7    2   33 1
     8    3   15 1
     9    3    4 1
    10    4    9 ar
    11    4    5 ar
    12    5    6 ar
    13    5   11 1
    14    6    7 ar
    15    6   34 1
    16    7    8 ar
    17    7   35 1
    18    8    9 ar
    19    8   10 1
    20   11   12 am
    21   11   28 1
    22   12   13 2
    23   12   14 1
    24   14   19 ar
    25   14   15 ar
    26   15   16 ar
    27   16   17 ar
    28   17   18 ar
    29   17   36 1
    30   18   19 ar
    31   18   20 1
    32   19   37 1
    33   20   21 1
    34   20   38 1
    35   21   22 1
    36   21   39 1
    37   21   40 1
    38   22   27 ar
    39   22   23 ar
    40   23   24 ar
    41   23   41 1
    42   24   25 ar
    43   24   42 1
    44   25   26 ar
    45   25   43 1
    46   26   27 ar
    47   26   44 1
    48   27   45 1
    49   28   46 1
    50   28   47 1
    51   28   48 1
@<TRIPOS>MOLECULE
CHEMBL145295
   47    50     0     0     0
SMALL
USER_CHARGES

@<TRIPOS>ATOM
      1 C1         -0.0207    1.4819    0.0599 C.3       1 <0>        -0.1755
      2 C2         -0.0156   -0.0480    0.0413 C.3       1 <0>         0.1220
      3 N1         -1.3952   -0.5408    0.0318 N.pl3     1 <0>        -0.5846
      4 C3         -2.0597   -0.7855    1.2217 C.ar      1 <0>         0.3827
      5 C4         -3.2519   -0.1006    1.5082 C.ar      1 <0>        -0.1895
      6 C5         -3.9502   -0.4242    2.6768 C.ar      1 <0>         0.0028
      7 C6         -3.4108   -1.3770    3.5240 C.ar      1 <0>        -0.1667
      8 C7         -2.2082   -1.9756    3.1962 C.ar      1 <0>         0.1555
      9 N2         -1.5769   -1.6724    2.0786 N.ar      1 <0>        -0.4934
     10 C8         -3.7440    0.9646    0.6302 C.2       1 <0>         0.5727
     11 O1         -4.2398    1.9379    1.1641 O.2       1 <0>        -0.4914
     12 N3         -3.6962    0.9609   -0.6939 N.am      1 <0>        -0.5391
     13 C9         -3.2027   -0.0601   -1.5089 C.ar      1 <0>         0.1053
     14 C10        -2.0563   -0.7634   -1.1754 C.ar      1 <0>         0.3992
     15 N4         -1.5739   -1.6801   -2.0065 N.ar      1 <0>        -0.5107
     16 C11        -2.1787   -1.9790   -3.1454 C.ar      1 <0>         0.4582
     17 C12        -3.3531   -1.3372   -3.5146 C.ar      1 <0>        -0.1802
     18 C13        -3.8724   -0.3697   -2.6896 C.ar      1 <0>         0.0272
     19 N5         -1.6307   -2.9473   -3.9825 N.pl3     1 <0>        -0.5890
     20 C14        -2.3404   -3.3920   -5.1925 C.3       1 <0>         0.0743
     21 C15        -1.3704   -3.3161   -6.3772 C.3       1 <0>         0.0421
     22 O2         -0.1709   -4.0215   -6.0494 O.3       1 <0>        -0.3628
     23 C16         0.5470   -3.4720   -4.9419 C.3       1 <0>         0.0478
     24 C17        -0.3221   -3.5518   -3.6867 C.3       1 <0>         0.0604
     25 C18        -4.2150    2.1508   -1.3731 C.3       1 <0>         0.0514
     26 H1          1.0057    1.8485    0.0669 H         1 <0>         0.0859
     27 H2         -0.5335    1.8543   -0.8269 H         1 <0>         0.0589
     28 H3         -0.5380    1.8326    0.9529 H         1 <0>         0.0658
     29 H4          0.5016   -0.3988   -0.8518 H         1 <0>         0.0774
     30 H5          0.4972   -0.4205    0.9281 H         1 <0>         0.1064
     31 H6         -4.8874    0.0581    2.9123 H         1 <0>         0.1582
     32 H7         -3.9249   -1.6502    4.4337 H         1 <0>         0.1602
     33 H8         -1.7780   -2.7040    3.8675 H         1 <0>         0.1785
     34 H9         -3.8521   -1.5973   -4.4364 H         1 <0>         0.1909
     35 H10        -4.7827    0.1459   -2.9577 H         1 <0>         0.1851
     36 H11        -2.6807   -4.4192   -5.0619 H         1 <0>         0.1076
     37 H12        -3.1958   -2.7419   -5.3762 H         1 <0>         0.1127
     38 H13        -1.8313   -3.7698   -7.2546 H         1 <0>         0.1270
     39 H14        -1.1336   -2.2732   -6.5876 H         1 <0>         0.0676
     40 H15         1.4656   -4.0378   -4.7867 H         1 <0>         0.1256
     41 H16         0.7908   -2.4297   -5.1471 H         1 <0>         0.0658
     42 H17         0.1583   -3.0075   -2.8737 H         1 <0>         0.0858
     43 H18        -0.4558   -4.5954   -3.4019 H         1 <0>         0.1105
     44 H19        -4.5677    2.8677   -0.6316 H         1 <0>         0.1171
     45 H20        -3.4222    2.6040   -1.9683 H         1 <0>         0.0786
     46 H21        -5.0410    1.8660   -2.0248 H         1 <0>         0.0799
     47 H22        -0.7546   -2.1437   -1.7724 H         1 <0>         0.4356
@<TRIPOS>BOND
     1    1    2 1
     2    1   26 1
     3    1   27 1
     4    1   28 1
     5    2    3 1
     6    2   29 1
     7    2   30 1
     8    3   14 1
     9    3    4 1
    10    4    9 ar
    11    4    5 ar
    12    5    6 ar
    13    5   10 1
    14    6    7 ar
    15    6   31 1
    16    7    8 ar
    17    7   32 1
    18    8    9 ar
    19    8   33 1
    20   10   11 2
    21   10   12 am
    22   12   13 1
    23   12   25 1
    24   13   18 ar
    25   13   14 ar
    26   14   15 ar
    27   15   16 ar
    28   15   47 1
    29   16   17 ar
    30   16   19 1
    31   17   18 ar
    32   17   34 1
    33   18   35 1
    34   19   24 1
    35   19   20 1
    36   20   21 1
    37   20   36 1
    38   20   37 1
    39   21   22 1
    40   21   38 1
    41   21   39 1
    42   22   23 1
    43   23   24 1
    44   23   40 1
    45   23   41 1
    46   24   42 1
    47   24   43 1
    48   25   44 1
    49   25   45 1
    50   25   46 1
@<TRIPOS>MOLECULE
CHEMBL145295__1
   46    49     0     0     0
SMALL
USER_CHARGES

@<TRIPOS>ATOM
      1 C1         -0.4119    1.0466   -0.3169 C.3       1 <0>        -0.1709
      2 C2         -0.2101   -0.4675   -0.4043 C.3       1 <0>         0.1390
      3 N1          0.6709   -0.7783   -1.5327 N.pl3     1 <0>        -0.5791
      4 C3          0.1422   -1.0065   -2.7919 C.ar      1 <0>         0.4156
      5 C4          0.5303   -0.1930   -3.8690 C.ar      1 <0>        -0.1969
      6 C5          0.0483   -0.4936   -5.1478 C.ar      1 <0>        -0.0027
      7 C6         -0.8277   -1.5563   -5.2886 C.ar      1 <0>        -0.1920
      8 C7         -1.1997   -2.2832   -4.1726 C.ar      1 <0>         0.1483
      9 N2         -0.7164   -1.9973   -2.9792 N.ar      1 <0>        -0.5009
     10 C8          1.3891    0.9768   -3.6646 C.2       1 <0>         0.5742
     11 O1          1.1337    1.9720   -4.3146 O.2       1 <0>        -0.5320
     12 N3          2.4189    1.0460   -2.8338 N.am      1 <0>        -0.5314
     13 C9          2.9061    0.0205   -2.0205 C.ar      1 <0>         0.0285
     14 C10         2.0520   -0.8422   -1.3524 C.ar      1 <0>         0.4141
     15 N4          2.5455   -1.7619   -0.5312 N.ar      1 <0>        -0.5368
     16 C11         3.8483   -1.9129   -0.3524 C.ar      1 <0>         0.4227
     17 C12         4.7551   -1.1053   -1.0256 C.ar      1 <0>        -0.2209
     18 C13         4.2818   -0.1300   -1.8688 C.ar      1 <0>        -0.0348
     19 N5          4.3145   -2.8921    0.5209 N.pl3     1 <0>        -0.6106
     20 C14         3.3925   -3.6121    1.4135 C.3       1 <0>         0.0903
     21 C15         3.6414   -5.1163    1.2542 C.3       1 <0>         0.0464
     22 O2          5.0346   -5.3842    1.4306 O.3       1 <0>        -0.3788
     23 C16         5.8781   -4.7602    0.4595 C.3       1 <0>         0.0461
     24 C17         5.7429   -3.2417    0.5741 C.3       1 <0>         0.0892
     25 C18         3.1192    2.3307   -2.7613 C.3       1 <0>         0.0609
     26 H1          0.5521    1.5338   -0.1701 H         1 <0>         0.0547
     27 H2         -0.8641    1.4069   -1.2409 H         1 <0>         0.0542
     28 H3         -1.0674    1.2779    0.5227 H         1 <0>         0.0714
     29 H4          0.2421   -0.8277    0.5197 H         1 <0>         0.0818
     30 H5         -1.1741   -0.9546   -0.5510 H         1 <0>         0.0827
     31 H6          0.3521    0.0897   -6.0044 H         1 <0>         0.1476
     32 H7         -1.2176   -1.8152   -6.2619 H         1 <0>         0.1481
     33 H8         -1.8987   -3.0994   -4.2801 H         1 <0>         0.1669
     34 H9          5.8174   -1.2443   -0.8895 H         1 <0>         0.1435
     35 H10         4.9679    0.5129   -2.4002 H         1 <0>         0.1456
     36 H11         3.5763   -3.3170    2.4466 H         1 <0>         0.0713
     37 H12         2.3627   -3.3797    1.1425 H         1 <0>         0.1052
     38 H13         3.0681   -5.6616    2.0039 H         1 <0>         0.1066
     39 H14         3.3331   -5.4328    0.2578 H         1 <0>         0.0556
     40 H15         6.9138   -5.0493    0.6374 H         1 <0>         0.1088
     41 H16         5.5779   -5.0754   -0.5398 H         1 <0>         0.0556
     42 H17         6.2688   -2.7641   -0.2526 H         1 <0>         0.0944
     43 H18         6.1674   -2.9087    1.5212 H         1 <0>         0.0788
     44 H19         2.6456    3.0414   -3.4387 H         1 <0>         0.1038
     45 H20         3.0715    2.7135   -1.7418 H         1 <0>         0.0678
     46 H21         4.1614    2.1932   -3.0495 H         1 <0>         0.0681
@<TRIPOS>BOND
     1    1    2 1
     2    1   26 1
     3    1   27 1
     4    1   28 1
     5    2    3 1
     6    2   29 1
     7    2   30 1
     8    3   14 1
     9    3    4 1
    10    4    9 ar
    11    4    5 ar
    12    5    6 ar
    13    5   10 1
    14    6    7 ar
    15    6   31 1
    16    7    8 ar
    17    7   32 1
    18    8    9 ar
    19    8   33 1
    20   10   11 2
    21   10   12 am
    22   12   13 1
    23   12   25 1
    24   13   18 ar
    25   13   14 ar
    26   14   15 ar
    27   15   16 ar
    28   16   17 ar
    29   16   19 1
    30   17   18 ar
    31   17   34 1
    32   18   35 1
    33   19   24 1
    34   19   20 1
    35   20   21 1
    36   20   36 1
    37   20   37 1
    38   21   22 1
    39   21   38 1
    40   21   39 1
    41   22   23 1
    42   23   24 1
    43   23   40 1
    44   23   41 1
    45   24   42 1
    46   24   43 1
    47   25   44 1
    48   25   45 1
    49   25   46 1
@<TRIPOS>MOLECULE
CHEMBL149161
   41    44     0     0     0
SMALL
USER_CHARGES

@<TRIPOS>ATOM
      1 C1         -0.0158    1.3163    0.0093 C.2       1 <0>         0.0517
      2 C2          1.1829    1.9487    0.0012 C.2       1 <0>        -0.2307
      3 S1          2.2958    0.5527   -0.0169 S.3       1 <0>         0.0961
      4 C3          1.1376   -0.6684   -0.0124 C.2       1 <0>         0.2561
      5 N1          0.0021   -0.0041    0.0020 N.2       1 <0>        -0.4549
      6 N2          1.3331   -2.0439   -0.0220 N.pl3     1 <0>        -0.5847
      7 C4          0.2724   -2.8754   -0.0163 C.2       1 <0>         0.5260
      8 S2         -1.3159   -2.2366    0.0029 S.2       1 <0>        -0.5117
      9 N3          0.4620   -4.2097   -0.0257 N.pl3     1 <0>        -0.6740
     10 C5         -0.6909   -5.1135   -0.0194 C.3       1 <0>         0.1342
     11 C6         -0.2025   -6.5634   -0.0324 C.3       1 <0>        -0.0665
     12 C7          0.6316   -6.8093   -1.2913 C.3       1 <0>        -0.1034
     13 C8          1.1200   -8.2592   -1.3042 C.3       1 <0>        -0.0857
     14 C9         -0.0841   -9.2031   -1.2977 C.3       1 <0>        -0.1097
     15 C10        -0.9181   -8.9571   -0.0388 C.3       1 <0>        -0.0848
     16 C11        -1.4066   -7.5073   -0.0259 C.3       1 <0>        -0.0989
     17 C12        -0.0596   -9.2171    1.2006 C.3       1 <0>        -0.1097
     18 C13         1.1445   -8.2732    1.1941 C.3       1 <0>        -0.0857
     19 C14         1.9786   -8.5192   -0.0648 C.3       1 <0>        -0.1095
     20 C15         0.6561   -6.8234    1.2071 C.3       1 <0>        -0.1034
     21 H1         -0.9443    1.8676    0.0255 H         1 <0>         0.1773
     22 H2          1.4040    3.0059    0.0048 H         1 <0>         0.1996
     23 H3          2.2330   -2.4058   -0.0329 H         1 <0>         0.4153
     24 H4          1.3619   -4.5716   -0.0365 H         1 <0>         0.3955
     25 H5         -1.2851   -4.9382    0.8774 H         1 <0>         0.0907
     26 H6         -1.3026   -4.9282   -0.9024 H         1 <0>         0.0907
     27 H7          0.0199   -6.6241   -2.1743 H         1 <0>         0.0686
     28 H8          1.4894   -6.1369   -1.2959 H         1 <0>         0.0554
     29 H9          1.7142   -8.4344   -2.2010 H         1 <0>         0.0710
     30 H10        -0.6958   -9.0179   -2.1807 H         1 <0>         0.0635
     31 H11         0.2639  -10.2360   -1.3069 H         1 <0>         0.0633
     32 H12        -1.7760   -9.6296   -0.0342 H         1 <0>         0.0741
     33 H13        -2.0008   -7.3320    0.8710 H         1 <0>         0.0696
     34 H14        -2.0182   -7.3220   -0.9089 H         1 <0>         0.0696
     35 H15        -0.6538   -9.0419    2.0975 H         1 <0>         0.0635
     36 H16         0.2884  -10.2501    1.1914 H         1 <0>         0.0633
     37 H17         1.7562   -8.4585    2.0771 H         1 <0>         0.0710
     38 H18         2.3265   -9.5521   -0.0740 H         1 <0>         0.0641
     39 H19         2.8364   -7.8468   -0.0694 H         1 <0>         0.0593
     40 H20         1.5139   -6.1509    1.2024 H         1 <0>         0.0554
     41 H21         0.0619   -6.6481    2.1039 H         1 <0>         0.0686
@<TRIPOS>BOND
     1    1    5 1
     2    1    2 2
     3    1   21 1
     4    2    3 1
     5    2   22 1
     6    3    4 1
     7    4    5 2
     8    4    6 1
     9    6    7 1
    10    6   23 1
    11    7    8 2
    12    7    9 1
    13    9   10 1
    14    9   24 1
    15   10   11 1
    16   10   25 1
    17   10   26 1
    18   11   16 1
    19   11   20 1
    20   11   12 1
    21   12   13 1
    22   12   27 1
    23   12   28 1
    24   13   19 1
    25   13   14 1
    26   13   29 1
    27   14   15 1
    28   14   30 1
    29   14   31 1
    30   15   16 1
    31   15   17 1
    32   15   32 1
    33   16   33 1
    34   16   34 1
    35   17   18 1
    36   17   35 1
    37   17   36 1
    38   18   19 1
    39   18   20 1
    40   18   37 1
    41   19   38 1
    42   19   39 1
    43   20   40 1
    44   20   41 1
@<TRIPOS>MOLECULE
CHEMBL84933
   45    47     0     0     0
SMALL
USER_CHARGES

@<TRIPOS>ATOM
      1 C1         -0.0187    1.5258    0.0104 C.3       1 <0>        -0.1487
      2 C2          0.0021   -0.0041    0.0020 C.3       1 <0>        -0.0702
      3 C3          0.7074   -0.4901   -1.2379 C.2       1 <0>        -0.1285
      4 C4         -0.0010   -0.6214   -2.4413 C.2       1 <0>        -0.1415
      5 C5          0.6543   -1.0633   -3.5575 C.2       1 <0>         0.1081
      6 C6          2.0286   -1.3768   -3.4708 C.2       1 <0>         0.5134
      7 N1          2.6767   -1.2386   -2.2984 N.am      1 <0>        -0.5926
      8 C7          2.0242   -0.7940   -1.1909 C.2       1 <0>         0.0853
      9 C8          2.7767   -0.6437    0.1061 C.3       1 <0>        -0.1187
     10 O1          2.6283   -1.7729   -4.4575 O.2       1 <0>        -0.5521
     11 N2         -0.0295   -1.2038   -4.7716 N.pl3     1 <0>        -0.7215
     12 C9          0.6810   -1.6780   -5.9618 C.3       1 <0>         0.1930
     13 C10        -0.2742   -1.7397   -7.1257 C.ar      1 <0>        -0.1687
     14 C11        -0.2157   -0.7958   -8.1077 C.ar      1 <0>        -0.0065
     15 C12        -1.1268   -0.8898   -9.1785 C.ar      1 <0>        -0.1363
     16 C13        -1.1226    0.0471  -10.2238 C.ar      1 <0>        -0.0793
     17 C14        -2.0182   -0.0763  -11.2423 C.ar      1 <0>        -0.1311
     18 C15        -2.9399   -1.1208  -11.2606 C.ar      1 <0>        -0.0854
     19 C16        -2.9718   -2.0463  -10.2631 C.ar      1 <0>        -0.1096
     20 C17        -2.0626   -1.9528   -9.1953 C.ar      1 <0>         0.1724
     21 N3         -2.0711   -2.8495   -8.2028 N.ar      1 <0>        -0.5398
     22 C18        -1.2193   -2.7696   -7.2033 C.ar      1 <0>         0.3635
     23 O2         -1.2614   -3.7040   -6.2219 O.3       1 <0>        -0.2980
     24 C19        -2.2441   -4.7337   -6.3483 C.3       1 <0>         0.0386
     25 H1          1.0039    1.9031    0.0027 H         1 <0>         0.0544
     26 H2         -0.5459    1.8868   -0.8726 H         1 <0>         0.0558
     27 H3         -0.5289    1.8773    0.9072 H         1 <0>         0.0574
     28 H4          0.5293   -0.3651    0.8851 H         1 <0>         0.0738
     29 H5         -1.0205   -0.3814    0.0098 H         1 <0>         0.0728
     30 H6         -1.0519   -0.3766   -2.4859 H         1 <0>         0.1280
     31 H7          2.7255   -1.5774    0.6662 H         1 <0>         0.0811
     32 H8          3.8188   -0.4029   -0.1043 H         1 <0>         0.0708
     33 H9          2.3303    0.1579    0.6945 H         1 <0>         0.0899
     34 H10         3.6207   -1.4552   -2.2441 H         1 <0>         0.4150
     35 H11        -0.9735   -0.9872   -4.8244 H         1 <0>         0.4023
     36 H12         1.4954   -0.9924   -6.1960 H         1 <0>         0.0769
     37 H13         1.0862   -2.6718   -5.7712 H         1 <0>         0.0820
     38 H14         0.5097    0.0033   -8.0658 H         1 <0>         0.1494
     39 H15        -0.4133    0.8615  -10.2202 H         1 <0>         0.1313
     40 H16        -2.0141    0.6451  -12.0460 H         1 <0>         0.1287
     41 H17        -3.6403   -1.1971  -12.0791 H         1 <0>         0.1310
     42 H18        -3.6932   -2.8496  -10.2919 H         1 <0>         0.1347
     43 H19        -3.2380   -4.2867   -6.3700 H         1 <0>         0.0604
     44 H20        -2.0743   -5.2867   -7.2722 H         1 <0>         0.0605
     45 H21        -2.1697   -5.4132   -5.4993 H         1 <0>         0.0977
@<TRIPOS>BOND
     1    1    2 1
     2    1   25 1
     3    1   26 1
     4    1   27 1
     5    2   28 1
     6    2   29 1
     7    2    3 1
     8    3    8 2
     9    3    4 1
    10    4   30 1
    11    4    5 2
    12    5    6 1
    13    5   11 1
    14    6   10 2
    15    6    7 am
    16    7   34 1
    17    7    8 1
    18    8    9 1
    19    9   31 1
    20    9   32 1
    21    9   33 1
    22   11   12 1
    23   11   35 1
    24   12   13 1
    25   12   36 1
    26   12   37 1
    27   13   22 ar
    28   13   14 ar
    29   14   15 ar
    30   14   38 1
    31   15   20 ar
    32   15   16 ar
    33   16   17 ar
    34   16   39 1
    35   17   18 ar
    36   17   40 1
    37   18   19 ar
    38   18   41 1
    39   19   20 ar
    40   19   42 1
    41   20   21 ar
    42   21   22 ar
    43   22   23 1
    44   23   24 1
    45   24   43 1
    46   24   44 1
    47   24   45 1
@<TRIPOS>MOLECULE
CHEMBL153724
   20    21     0     0     0
SMALL
USER_CHARGES

@<TRIPOS>ATOM
      1 C1         -0.0165    1.3624    0.0095 C.ar      1 <0>        -0.2134
      2 C2          1.1692    2.0920    0.0021 C.ar      1 <0>        -0.1031
      3 C3          2.3820    1.4652   -0.0133 C.ar      1 <0>         0.0695
      4 C4          2.4424    0.0565   -0.0214 C.ar      1 <0>         0.1658
      5 C5          1.2352   -0.6831   -0.0134 C.ar      1 <0>        -0.2189
      6 C6          0.0021   -0.0041    0.0020 C.ar      1 <0>         0.1833
      7 O1         -1.1631   -0.7034    0.0098 O.3       1 <0>        -0.4791
      8 C7          1.2959   -2.0919   -0.0215 C.ar      1 <0>         0.2998
      9 C8          2.5485   -2.6885   -0.0371 C.ar      1 <0>        -0.1551
     10 C9          3.6905   -1.8913   -0.0442 C.ar      1 <0>         0.1512
     11 N1          3.6174   -0.5807   -0.0361 N.ar      1 <0>        -0.5626
     12 O2          2.6606   -4.0446   -0.0450 O.3       1 <0>        -0.4821
     13 O3          0.1641   -2.8411   -0.0139 O.3       1 <0>        -0.6530
     14 O4          3.5280    2.1971   -0.0212 O.3       1 <0>        -0.4860
     15 H1         -0.9627    1.8828    0.0259 H         1 <0>         0.1197
     16 H2          1.1289    3.1712    0.0083 H         1 <0>         0.1218
     17 H3         -1.5091   -0.9010   -0.8712 H         1 <0>         0.3842
     18 H4          4.6616   -2.3637   -0.0560 H         1 <0>         0.1335
     19 H5          2.6841   -4.4322   -0.9306 H         1 <0>         0.3497
     20 H6          3.8684    2.4044    0.8598 H         1 <0>         0.3747
@<TRIPOS>BOND
     1    1    6 ar
     2    1    2 ar
     3    1   15 1
     4    2    3 ar
     5    2   16 1
     6    3    4 ar
     7    3   14 1
     8    4   11 ar
     9    4    5 ar
    10    5    6 ar
    11    5    8 ar
    12    6    7 1
    13    7   17 1
    14    8    9 ar
    15    8   13 1
    16    9   10 ar
    17    9   12 1
    18   10   11 ar
    19   10   18 1
    20   12   19 1
    21   14   20 1
@<TRIPOS>MOLECULE
CHEMBL153724__1
   20    21     0     0     0
SMALL
USER_CHARGES

@<TRIPOS>ATOM
      1 C1         -0.0167    1.3779    0.0096 C.ar      1 <0>        -0.1045
      2 C2          1.1702    2.0957    0.0021 C.ar      1 <0>        -0.2383
      3 C3          2.3889    1.4452   -0.0135 C.ar      1 <0>         0.2439
      4 C4          2.4328    0.0504   -0.0214 C.ar      1 <0>         0.0592
      5 C5          1.2304   -0.6781   -0.0134 C.ar      1 <0>        -0.1632
      6 C6          0.0021   -0.0041    0.0020 C.ar      1 <0>         0.0284
      7 O1         -1.1619   -0.7039    0.0099 O.3       1 <0>        -0.4817
      8 C7          1.2982   -2.1465   -0.0220 C.2       1 <0>         0.4207
      9 C8          2.5813   -2.7502   -0.0381 C.2       1 <0>        -0.1012
     10 C9          3.6914   -1.9794   -0.0444 C.2       1 <0>         0.0702
     11 N1          3.6350   -0.6222   -0.0374 N.pl3     1 <0>        -0.5674
     12 O2          2.6948   -4.1071   -0.0466 O.3       1 <0>        -0.4676
     13 O3          0.2830   -2.8242   -0.0152 O.2       1 <0>        -0.4972
     14 O4          3.5446    2.1633   -0.0215 O.3       1 <0>        -0.7276
     15 H1         -0.9609    1.9019    0.0260 H         1 <0>         0.1083
     16 H2          1.1413    3.1753    0.0082 H         1 <0>         0.1095
     17 H3         -1.5078   -0.9018   -0.8712 H         1 <0>         0.3633
     18 H4          4.6585   -2.4600   -0.0563 H         1 <0>         0.1484
     19 H5          3.6079   -4.4253   -0.0574 H         1 <0>         0.3754
     20 H6          4.4613   -0.1142   -0.0432 H         1 <0>         0.4213
@<TRIPOS>BOND
     1    1    6 ar
     2    1    2 ar
     3    1   15 1
     4    2    3 ar
     5    2   16 1
     6    3    4 ar
     7    3   14 1
     8    4   11 1
     9    4    5 ar
    10    5    6 ar
    11    5    8 1
    12    6    7 1
    13    7   17 1
    14    8    9 1
    15    8   13 2
    16    9   10 2
    17    9   12 1
    18   10   11 1
    19   10   18 1
    20   11   20 1
    21   12   19 1
@<TRIPOS>MOLECULE
CHEMBL135259
   40    41     0     0     0
SMALL
USER_CHARGES

@<TRIPOS>ATOM
      1 C1         -0.0013    1.5033   -0.0007 C.3       1 <0>        -0.1543
      2 C2          0.0163   -0.0265   -0.0055 C.3       1 <0>         0.0503
      3 O1         -1.3253   -0.5184    0.0047 O.3       1 <0>        -0.2984
      4 C3         -1.4879   -1.8683    0.0020 C.ar      1 <0>         0.1426
      5 C4         -0.3790   -2.7011   -0.0044 C.ar      1 <0>        -0.1638
      6 C5         -0.5454   -4.0726   -0.0067 C.ar      1 <0>        -0.0982
      7 C6         -1.8188   -4.6165   -0.0025 C.ar      1 <0>         0.0802
      8 C7         -2.9272   -3.7873    0.0039 C.ar      1 <0>        -0.0811
      9 C8         -2.7639   -2.4144    0.0115 C.ar      1 <0>        -0.0434
     10 Cl1        -4.1537   -1.3743    0.0262 Cl        1 <0>        -0.0360
     11 C9         -4.3123   -4.3812    0.0084 C.3       1 <0>        -0.0983
     12 C10        -4.7749   -4.5853    1.4524 C.3       1 <0>         0.1176
     13 N1         -6.1214   -5.1626    1.4568 N.pl3     1 <0>        -0.6361
     14 C11        -6.7358   -5.4307    2.6261 C.2       1 <0>         0.4963
     15 N2         -7.9745   -5.9618    2.6301 N.pl3     1 <0>        -0.4897
     16 N3         -8.5698   -6.3417    3.8401 N.ar      1 <0>         0.0415
     17 C12        -9.7449   -6.9558    3.8120 C.ar      1 <0>         0.0838
     18 C13       -10.3485   -7.3390    4.9945 C.ar      1 <0>        -0.0559
     19 C14        -9.6859   -7.0594    6.1874 C.ar      1 <0>         0.0118
     20 C15        -8.4624   -6.4143    6.1162 C.ar      1 <0>         0.0997
     21 N4         -7.9579   -6.0888    4.9397 N.ar      1 <0>        -0.1241
     22 Cl2       -10.3735   -7.5056    7.7177 Cl        1 <0>         0.0500
     23 S1         -5.9429   -5.0965    4.1061 S.2       1 <0>        -0.3585
     24 F1         -1.9795   -5.9579   -0.0052 F         1 <0>        -0.1296
     25 H1          1.0221    1.8785   -0.0085 H         1 <0>         0.0843
     26 H2         -0.5270    1.8634   -0.8850 H         1 <0>         0.0693
     27 H3         -0.5115    1.8580    0.8949 H         1 <0>         0.0691
     28 H4          0.5265   -0.3812   -0.9011 H         1 <0>         0.0686
     29 H5          0.5421   -0.3866    0.8788 H         1 <0>         0.0686
     30 H6          0.6145   -2.2775   -0.0081 H         1 <0>         0.1526
     31 H7          0.3183   -4.7209   -0.0121 H         1 <0>         0.1512
     32 H8         -4.9991   -3.7053   -0.5011 H         1 <0>         0.0997
     33 H9         -4.2976   -5.3412   -0.5075 H         1 <0>         0.0982
     34 H10        -4.0881   -5.2611    1.9619 H         1 <0>         0.1074
     35 H11        -4.7896   -3.6252    1.9684 H         1 <0>         0.1082
     36 H12        -8.4538   -6.0810    1.7953 H         1 <0>         0.4375
     37 H13       -10.2290   -7.1556    2.8675 H         1 <0>         0.2218
     38 H14       -11.3053   -7.8399    4.9939 H         1 <0>         0.2121
     39 H15        -7.9203   -6.1810    7.0207 H         1 <0>         0.2321
     40 H16        -6.5706   -5.3519    0.6183 H         1 <0>         0.4133
@<TRIPOS>BOND
     1    1    2 1
     2    1   25 1
     3    1   26 1
     4    1   27 1
     5    2    3 1
     6    2   28 1
     7    2   29 1
     8    3    4 1
     9    4    9 ar
    10    4    5 ar
    11    5    6 ar
    12    5   30 1
    13    6    7 ar
    14    6   31 1
    15    7    8 ar
    16    7   24 1
    17    8    9 ar
    18    8   11 1
    19    9   10 1
    20   11   12 1
    21   11   32 1
    22   11   33 1
    23   12   13 1
    24   12   34 1
    25   12   35 1
    26   13   14 1
    27   13   40 1
    28   14   15 1
    29   14   23 2
    30   15   16 1
    31   15   36 1
    32   16   21 ar
    33   16   17 ar
    34   17   18 ar
    35   17   37 1
    36   18   19 ar
    37   18   38 1
    38   19   20 ar
    39   19   22 1
    40   20   21 ar
    41   20   39 1
@<TRIPOS>MOLECULE
CHEMBL145279
   46    49     0     0     0
SMALL
USER_CHARGES

@<TRIPOS>ATOM
      1 C1         -0.0187    1.5258    0.0104 C.3       1 <0>        -0.1726
      2 C2          0.0021   -0.0041    0.0020 C.3       1 <0>         0.1375
      3 N1          0.6878   -0.4765   -1.2033 N.pl3     1 <0>        -0.5773
      4 C3         -0.0234   -0.7078   -2.3686 C.ar      1 <0>         0.4144
      5 C4          0.3072   -0.0046   -3.5386 C.ar      1 <0>        -0.1982
      6 C5         -0.3686   -0.3143   -4.7240 C.ar      1 <0>        -0.0002
      7 C6         -1.3671   -1.2722   -4.6820 C.ar      1 <0>        -0.1906
      8 C7         -1.6673   -1.8894   -3.4815 C.ar      1 <0>         0.1500
      9 N2         -1.0030   -1.5990   -2.3798 N.ar      1 <0>        -0.4997
     10 C8          1.3091    1.0648   -3.5228 C.2       1 <0>         0.5835
     11 O1          1.0818    2.0470   -4.2025 O.2       1 <0>        -0.5273
     12 N3          2.4404    1.0564   -2.8331 N.am      1 <0>        -0.6400
     13 C9          2.9139    0.0260   -2.0188 C.ar      1 <0>         0.0747
     14 C10         2.0650   -0.6930   -1.1921 C.ar      1 <0>         0.4012
     15 N4          2.5583   -1.6189   -0.3781 N.ar      1 <0>        -0.5250
     16 C11         3.8474   -1.9124   -0.3528 C.ar      1 <0>         0.3367
     17 C12         4.7405   -1.2566   -1.1859 C.ar      1 <0>        -0.1312
     18 C13         4.2720   -0.2778   -2.0289 C.ar      1 <0>        -0.0167
     19 C14         5.2175    0.4580   -2.9432 C.3       1 <0>         0.2977
     20 O2          5.0446   -0.0090   -4.2833 O.3       1 <0>        -0.3782
     21 C15         5.9212    0.6125   -5.2282 C.3       1 <0>         0.0548
     22 C16         7.3713    0.3717   -4.7947 C.3       1 <0>        -0.1946
     23 C17         7.5441    0.8587   -3.3519 C.3       1 <0>         0.0568
     24 O3          6.5644    0.2215   -2.5261 O.3       1 <0>        -0.3828
     25 O4          4.3015   -2.8673    0.4986 O.3       1 <0>        -0.2994
     26 C18         3.3328   -3.5077    1.3313 C.3       1 <0>         0.0388
     27 H1          1.0039    1.9031    0.0027 H         1 <0>         0.0555
     28 H2         -0.5459    1.8868   -0.8726 H         1 <0>         0.0554
     29 H3         -0.5289    1.8773    0.9072 H         1 <0>         0.0728
     30 H4          0.5293   -0.3651    0.8851 H         1 <0>         0.0829
     31 H5         -1.0205   -0.3814    0.0098 H         1 <0>         0.0850
     32 H6         -0.1174    0.1823   -5.6496 H         1 <0>         0.1486
     33 H7         -1.9075   -1.5351   -5.5794 H         1 <0>         0.1490
     34 H8         -2.4600   -2.6219   -3.4454 H         1 <0>         0.1680
     35 H9          2.9972    1.8477   -2.9013 H         1 <0>         0.4081
     36 H10         5.7894   -1.5136   -1.1737 H         1 <0>         0.1640
     37 H11         5.0062    1.5265   -2.9006 H         1 <0>         0.0697
     38 H12         5.7589    0.1802   -6.2156 H         1 <0>         0.1056
     39 H13         5.7229    1.6838   -5.2601 H         1 <0>         0.0584
     40 H14         7.5971   -0.6932   -4.8502 H         1 <0>         0.0858
     41 H15         8.0449    0.9243   -5.4498 H         1 <0>         0.0903
     42 H16         8.5424    0.6025   -2.9973 H         1 <0>         0.1076
     43 H17         7.4073    1.9393   -3.3126 H         1 <0>         0.0588
     44 H18         2.5874   -4.0016    0.7080 H         1 <0>         0.0612
     45 H19         3.8273   -4.2472    1.9613 H         1 <0>         0.1002
     46 H20         2.8449   -2.7629    1.9600 H         1 <0>         0.0608
@<TRIPOS>BOND
     1    1    2 1
     2    1   27 1
     3    1   28 1
     4    1   29 1
     5    2    3 1
     6    2   30 1
     7    2   31 1
     8    3   14 1
     9    3    4 1
    10    4    9 ar
    11    4    5 ar
    12    5    6 ar
    13    5   10 1
    14    6    7 ar
    15    6   32 1
    16    7    8 ar
    17    7   33 1
    18    8    9 ar
    19    8   34 1
    20   10   11 2
    21   10   12 am
    22   12   13 1
    23   12   35 1
    24   13   18 ar
    25   13   14 ar
    26   14   15 ar
    27   15   16 ar
    28   16   17 ar
    29   16   25 1
    30   17   18 ar
    31   17   36 1
    32   18   19 1
    33   19   24 1
    34   19   20 1
    35   19   37 1
    36   20   21 1
    37   21   22 1
    38   21   38 1
    39   21   39 1
    40   22   23 1
    41   22   40 1
    42   22   41 1
    43   23   24 1
    44   23   42 1
    45   23   43 1
    46   25   26 1
    47   26   44 1
    48   26   45 1
    49   26   46 1
@<TRIPOS>MOLECULE
CHEMBL49078
   26    27     0     0     0
SMALL
USER_CHARGES

@<TRIPOS>ATOM
      1 C1         -0.0164    1.3603    0.0095 C.2       1 <0>         0.1701
      2 C2          1.1568    2.0383    0.0020 C.2       1 <0>        -0.0897
      3 C3          2.3661    1.3106   -0.0135 C.2       1 <0>         0.4968
      4 N1          2.3335   -0.0154   -0.0203 N.2       1 <0>        -0.5929
      5 C4          1.1725   -0.6678   -0.0127 C.2       1 <0>         0.6600
      6 O1          1.1701   -1.8878   -0.0188 O.2       1 <0>        -0.5288
      7 N2          0.0021   -0.0041    0.0020 N.am      1 <0>        -0.5333
      8 C5         -1.2587   -0.7501    0.0105 C.3       1 <0>         0.3049
      9 C6         -1.3840   -1.5776   -1.2482 C.2       1 <0>        -0.1687
     10 C7         -2.1979   -0.9586   -2.0711 C.2       1 <0>        -0.1650
     11 C8         -2.6636    0.3185   -1.4100 C.3       1 <0>         0.0827
     12 O2         -2.3751    0.1598   -0.0078 O.3       1 <0>        -0.3337
     13 C9         -4.1673    0.5052   -1.6222 C.3       1 <0>         0.0832
     14 O3         -4.5694    1.7705   -1.0935 O.3       1 <0>        -0.5686
     15 N3          3.5724    1.9732   -0.0219 N.pl3     1 <0>        -0.8045
     16 F1          1.1688    3.3892    0.0087 F         1 <0>        -0.1205
     17 H1         -0.9554    1.8938    0.0258 H         1 <0>         0.1898
     18 H2         -1.3102   -1.3912    0.8905 H         1 <0>         0.1407
     19 H3         -0.8885   -2.5183   -1.4380 H         1 <0>         0.1659
     20 H4         -2.4855   -1.3029   -3.0535 H         1 <0>         0.1613
     21 H5         -2.1173    1.1715   -1.8125 H         1 <0>         0.0951
     22 H6         -4.3910    0.4693   -2.6884 H         1 <0>         0.0677
     23 H7         -4.7080   -0.2909   -1.1104 H         1 <0>         0.0614
     24 H8         -5.5131    1.9565   -1.1934 H         1 <0>         0.3867
     25 H9          3.5931    2.9429   -0.0172 H         1 <0>         0.4201
     26 H10         4.4018    1.4704   -0.0325 H         1 <0>         0.4195
@<TRIPOS>BOND
     1    1    7 1
     2    1    2 2
     3    1   17 1
     4    2    3 1
     5    2   16 1
     6    3    4 2
     7    3   15 1
     8    4    5 1
     9    5    6 2
    10    5    7 am
    11    7    8 1
    12    8   12 1
    13    8    9 1
    14    8   18 1
    15    9   10 2
    16    9   19 1
    17   10   11 1
    18   10   20 1
    19   11   12 1
    20   11   13 1
    21   11   21 1
    22   13   14 1
    23   13   22 1
    24   13   23 1
    25   14   24 1
    26   15   25 1
    27   15   26 1
@<TRIPOS>MOLECULE
CHEMBL49078__1
   26    27     0     0     0
SMALL
USER_CHARGES

@<TRIPOS>ATOM
      1 C1          1.1178   -0.6732   -0.8660 C.2       1 <0>         0.1693
      2 C2          2.2941   -0.0025   -0.9165 C.2       1 <0>        -0.0922
      3 C3          2.3949    1.2492   -0.2718 C.2       1 <0>         0.4913
      4 N1          1.3435    1.7438    0.3679 N.2       1 <0>        -0.5950
      5 C4          0.1939    1.0729    0.4088 C.2       1 <0>         0.6417
      6 O1         -0.7583    1.5503    1.0037 O.2       1 <0>        -0.4811
      7 N2          0.0647   -0.1226   -0.1953 N.am      1 <0>        -0.5403
      8 C5         -1.2132   -0.8363   -0.1330 C.3       1 <0>         0.3007
      9 C6         -1.4999   -1.5097   -1.4556 C.2       1 <0>        -0.2113
     10 C7         -2.3745   -0.7817   -2.1097 C.2       1 <0>        -0.1340
     11 C8         -2.7229    0.4204   -1.2621 C.3       1 <0>         0.0791
     12 O2         -2.2930    0.0943    0.0734 O.3       1 <0>        -0.2937
     13 C9         -1.9793    1.6577   -1.7691 C.3       1 <0>         0.0733
     14 O3         -2.4001    2.8039   -1.0267 O.3       1 <0>        -0.5467
     15 N3          3.5776    1.9521   -0.3064 N.pl3     1 <0>        -0.8079
     16 F1          3.3536   -0.5236   -1.5729 F         1 <0>        -0.1225
     17 H1          1.0136   -1.6306   -1.3549 H         1 <0>         0.1835
     18 H2         -1.1932   -1.5736    0.6696 H         1 <0>         0.1315
     19 H3         -1.0597   -2.4326   -1.8033 H         1 <0>         0.1628
     20 H4         -2.7769   -1.0040   -3.0869 H         1 <0>         0.1615
     21 H5         -3.7989    0.5939   -1.2793 H         1 <0>         0.1220
     22 H6         -0.9064    1.5150   -1.6401 H         1 <0>         0.0381
     23 H7         -2.2014    1.8076   -2.8257 H         1 <0>         0.0540
     24 H8         -1.9685    3.6266   -1.2951 H         1 <0>         0.3792
     25 H9          4.3449    1.5877   -0.7748 H         1 <0>         0.4185
     26 H10         3.6439    2.8120    0.1375 H         1 <0>         0.4185
@<TRIPOS>BOND
     1    1    7 1
     2    1    2 2
     3    1   17 1
     4    2    3 1
     5    2   16 1
     6    3    4 2
     7    3   15 1
     8    4    5 1
     9    5    6 2
    10    5    7 am
    11    7    8 1
    12    8   12 1
    13    8    9 1
    14    8   18 1
    15    9   10 2
    16    9   19 1
    17   10   11 1
    18   10   20 1
    19   11   12 1
    20   11   13 1
    21   11   21 1
    22   13   14 1
    23   13   22 1
    24   13   23 1
    25   14   24 1
    26   15   25 1
    27   15   26 1
@<TRIPOS>MOLECULE
CHEMBL49078__2
   26    27     0     0     0
SMALL
USER_CHARGES

@<TRIPOS>ATOM
      1 C1         -0.0164    1.3603    0.0095 C.2       1 <0>         0.1697
      2 C2          1.1568    2.0383    0.0020 C.2       1 <0>        -0.0867
      3 C3          2.3661    1.3106   -0.0135 C.2       1 <0>         0.4949
      4 N1          2.3335   -0.0154   -0.0203 N.2       1 <0>        -0.5945
      5 C4          1.1725   -0.6678   -0.0127 C.2       1 <0>         0.6567
      6 O1          1.1701   -1.8878   -0.0188 O.2       1 <0>        -0.5101
      7 N2          0.0021   -0.0041    0.0020 N.am      1 <0>        -0.5233
      8 C5         -1.2587   -0.7501    0.0105 C.3       1 <0>         0.3119
      9 C6         -1.3897   -1.5681   -1.2538 C.2       1 <0>        -0.1903
     10 C7         -1.8313   -2.7612   -0.9310 C.2       1 <0>        -0.1453
     11 C8         -2.0211   -2.8097    0.5679 C.3       1 <0>         0.1036
     12 O2         -1.2670   -1.7004    1.0929 O.3       1 <0>        -0.3365
     13 C9         -1.4805   -4.1275    1.1265 C.3       1 <0>         0.0787
     14 O3         -1.7716   -4.2079    2.5232 O.3       1 <0>        -0.5690
     15 N3          3.5724    1.9732   -0.0219 N.pl3     1 <0>        -0.8058
     16 F1          1.1688    3.3892    0.0087 F         1 <0>        -0.1207
     17 H1         -0.9554    1.8938    0.0258 H         1 <0>         0.1873
     18 H2         -2.1006   -0.0643    0.1054 H         1 <0>         0.1206
     19 H3         -1.1588   -1.2287   -2.2528 H         1 <0>         0.1531
     20 H4         -2.0263   -3.5704   -1.6191 H         1 <0>         0.1574
     21 H5         -3.0763   -2.6990    0.8174 H         1 <0>         0.0985
     22 H6         -1.9523   -4.9624    0.6084 H         1 <0>         0.0625
     23 H7         -0.4016   -4.1701    0.9772 H         1 <0>         0.0653
     24 H8         -1.4570   -5.0195    2.9445 H         1 <0>         0.3832
     25 H9          3.5931    2.9429   -0.0172 H         1 <0>         0.4195
     26 H10         4.4018    1.4704   -0.0325 H         1 <0>         0.4191
@<TRIPOS>BOND
     1    1    7 1
     2    1    2 2
     3    1   17 1
     4    2    3 1
     5    2   16 1
     6    3    4 2
     7    3   15 1
     8    4    5 1
     9    5    6 2
    10    5    7 am
    11    7    8 1
    12    8   12 1
    13    8    9 1
    14    8   18 1
    15    9   10 2
    16    9   19 1
    17   10   11 1
    18   10   20 1
    19   11   12 1
    20   11   13 1
    21   11   21 1
    22   13   14 1
    23   13   22 1
    24   13   23 1
    25   14   24 1
    26   15   25 1
    27   15   26 1
@<TRIPOS>MOLECULE
CHEMBL49078__3
   26    27     0     0     0
SMALL
USER_CHARGES

@<TRIPOS>ATOM
      1 C1         -0.0164    1.3603    0.0095 C.2       1 <0>         0.1691
      2 C2          1.1568    2.0383    0.0020 C.2       1 <0>        -0.0860
      3 C3          2.3661    1.3106   -0.0135 C.2       1 <0>         0.4948
      4 N1          2.3335   -0.0154   -0.0203 N.2       1 <0>        -0.5937
      5 C4          1.1725   -0.6678   -0.0127 C.2       1 <0>         0.6559
      6 O1          1.1701   -1.8878   -0.0188 O.2       1 <0>        -0.5084
      7 N2          0.0021   -0.0041    0.0020 N.am      1 <0>        -0.5230
      8 C5         -1.2587   -0.7501    0.0105 C.3       1 <0>         0.3105
      9 C6         -1.3897   -1.5681   -1.2538 C.2       1 <0>        -0.1902
     10 C7         -1.8313   -2.7612   -0.9310 C.2       1 <0>        -0.1415
     11 C8         -2.0211   -2.8097    0.5679 C.3       1 <0>         0.1004
     12 O2         -1.2670   -1.7004    1.0929 O.3       1 <0>        -0.3327
     13 C9         -3.5023   -2.6544    0.9182 C.3       1 <0>         0.0651
     14 O3         -3.6784   -2.8185    2.3267 O.3       1 <0>        -0.5632
     15 N3          3.5724    1.9732   -0.0219 N.pl3     1 <0>        -0.8056
     16 F1          1.1688    3.3892    0.0087 F         1 <0>        -0.1206
     17 H1         -0.9554    1.8938    0.0258 H         1 <0>         0.1868
     18 H2         -2.1006   -0.0643    0.1054 H         1 <0>         0.1171
     19 H3         -1.1594   -1.2285   -2.2529 H         1 <0>         0.1534
     20 H4         -2.0263   -3.5704   -1.6191 H         1 <0>         0.1587
     21 H5         -1.6360   -3.7485    0.9659 H         1 <0>         0.1169
     22 H6         -3.8435   -1.6623    0.6225 H         1 <0>         0.0498
     23 H7         -4.0820   -3.4107    0.3890 H         1 <0>         0.0647
     24 H8         -4.5956   -2.7327    2.6211 H         1 <0>         0.3829
     25 H9          3.5931    2.9429   -0.0172 H         1 <0>         0.4195
     26 H10         4.4018    1.4704   -0.0325 H         1 <0>         0.4193
@<TRIPOS>BOND
     1    1    7 1
     2    1    2 2
     3    1   17 1
     4    2    3 1
     5    2   16 1
     6    3    4 2
     7    3   15 1
     8    4    5 1
     9    5    6 2
    10    5    7 am
    11    7    8 1
    12    8   12 1
    13    8    9 1
    14    8   18 1
    15    9   10 2
    16    9   19 1
    17   10   11 1
    18   10   20 1
    19   11   12 1
    20   11   13 1
    21   11   21 1
    22   13   14 1
    23   13   22 1
    24   13   23 1
    25   14   24 1
    26   15   25 1
    27   15   26 1
@<TRIPOS>MOLECULE
CHEMBL102166
   46    49     0     0     0
SMALL
USER_CHARGES

@<TRIPOS>ATOM
      1 C1         -0.0187    1.5258    0.0104 C.3       1 <0>        -0.1714
      2 C2          0.0021   -0.0041    0.0020 C.3       1 <0>         0.1369
      3 N1         -1.3723   -0.5112    0.0124 N.pl3     1 <0>        -0.5794
      4 C3         -2.0242   -0.7562    1.2209 C.ar      1 <0>         0.3590
      5 C4         -3.1930   -0.0728    1.5495 C.ar      1 <0>         0.0914
      6 C5         -3.8445   -0.3880    2.7374 C.ar      1 <0>        -0.0854
      7 C6         -3.2864   -1.3507    3.5670 C.ar      1 <0>        -0.1533
      8 C7         -2.1085   -1.9632    3.1920 C.ar      1 <0>         0.1113
      9 N2         -1.5193   -1.6575    2.0516 N.ar      1 <0>        -0.4731
     10 N3         -3.6959    0.9504    0.7502 N.am      1 <0>        -0.5372
     11 C8         -3.7350    0.9787   -0.5738 C.2       1 <0>         0.5758
     12 O1         -4.2323    1.9586   -1.0940 O.2       1 <0>        -0.5213
     13 C9         -3.2298   -0.0695   -1.4658 C.ar      1 <0>        -0.2011
     14 C10        -2.0402   -0.7469   -1.1771 C.ar      1 <0>         0.4279
     15 N4         -1.5584   -1.6315   -2.0382 N.ar      1 <0>        -0.4978
     16 C11        -2.1937   -1.9342   -3.1535 C.ar      1 <0>         0.1804
     17 C12        -3.3988   -1.3376   -3.4761 C.ar      1 <0>        -0.1712
     18 C13        -3.9308   -0.3970   -2.6315 C.ar      1 <0>         0.0239
     19 C14        -4.1225   -1.7216   -4.7410 C.3       1 <0>         0.1082
     20 O2         -5.0090   -2.8094   -4.4710 O.3       1 <0>        -0.3043
     21 C15        -5.7421   -3.2798   -5.5121 C.ar      1 <0>         0.1701
     22 C16        -5.6199   -2.7208   -6.7817 C.ar      1 <0>        -0.2636
     23 C17        -6.3823   -3.2275   -7.8140 C.ar      1 <0>         0.1378
     24 N5         -7.2184   -4.2278   -7.6092 N.ar      1 <0>        -0.5089
     25 C18        -7.3619   -4.7836   -6.4210 C.ar      1 <0>         0.1353
     26 C19        -6.6312   -4.3376   -5.3390 C.ar      1 <0>        -0.2053
     27 C20        -4.2396    2.1189    1.4468 C.3       1 <0>         0.0650
     28 H1          1.0039    1.9031    0.0027 H         1 <0>         0.0735
     29 H2         -0.5459    1.8868   -0.8726 H         1 <0>         0.0539
     30 H3         -0.5289    1.8773    0.9072 H         1 <0>         0.0544
     31 H4          0.5123   -0.3556   -0.8948 H         1 <0>         0.0843
     32 H5          0.5293   -0.3651    0.8851 H         1 <0>         0.0855
     33 H6         -4.7655    0.1064    3.0088 H         1 <0>         0.1479
     34 H7         -3.7687   -1.6170    4.4959 H         1 <0>         0.1485
     35 H8         -1.6624   -2.7026    3.8407 H         1 <0>         0.1676
     36 H9         -1.7648   -2.6611   -3.8273 H         1 <0>         0.1698
     37 H10        -4.8681    0.0851   -2.8672 H         1 <0>         0.1499
     38 H11        -4.6946   -0.8684   -5.1055 H         1 <0>         0.0816
     39 H12        -3.3976   -2.0227   -5.4972 H         1 <0>         0.0841
     40 H13        -4.9381   -1.9015   -6.9559 H         1 <0>         0.1404
     41 H14        -6.2940   -2.8001   -8.8019 H         1 <0>         0.1596
     42 H15        -8.0570   -5.6005   -6.2949 H         1 <0>         0.1639
     43 H16        -6.7503   -4.7997   -4.3701 H         1 <0>         0.1424
     44 H17        -3.4469    2.8508    1.6019 H         1 <0>         0.0684
     45 H18        -5.0324    2.5640    0.8456 H         1 <0>         0.0940
     46 H19        -4.6439    1.8114    2.4111 H         1 <0>         0.0806
@<TRIPOS>BOND
     1    1    2 1
     2    1   28 1
     3    1   29 1
     4    1   30 1
     5    2    3 1
     6    2   31 1
     7    2   32 1
     8    3   14 1
     9    3    4 1
    10    4    9 ar
    11    4    5 ar
    12    5    6 ar
    13    5   10 1
    14    6    7 ar
    15    6   33 1
    16    7    8 ar
    17    7   34 1
    18    8    9 ar
    19    8   35 1
    20   10   11 am
    21   10   27 1
    22   11   12 2
    23   11   13 1
    24   13   18 ar
    25   13   14 ar
    26   14   15 ar
    27   15   16 ar
    28   16   17 ar
    29   16   36 1
    30   17   18 ar
    31   17   19 1
    32   18   37 1
    33   19   20 1
    34   19   38 1
    35   19   39 1
    36   20   21 1
    37   21   26 ar
    38   21   22 ar
    39   22   23 ar
    40   22   40 1
    41   23   24 ar
    42   23   41 1
    43   24   25 ar
    44   25   26 ar
    45   25   42 1
    46   26   43 1
    47   27   44 1
    48   27   45 1
    49   27   46 1
@<TRIPOS>MOLECULE
CHEMBL283950
   33    35     0     0     0
SMALL
USER_CHARGES

@<TRIPOS>ATOM
      1 C1          6.4689   -3.4761   -2.6365 C.ar      1 <0>        -0.0637
      2 C2          5.2654   -3.9439   -2.1429 C.ar      1 <0>        -0.1462
      3 C3          4.4819   -3.1300   -1.3463 C.ar      1 <0>        -0.0160
      4 C4          4.9022   -1.8485   -1.0429 C.ar      1 <0>        -0.6563
      5 C5          6.1062   -1.3811   -1.5357 C.ar      1 <0>        -0.0228
      6 C6          6.8890   -2.1945   -2.3335 C.ar      1 <0>        -0.1441
      7 S1          3.9031   -0.8106   -0.0283 S.o2      1 <0>         2.6010
      8 O1          4.2605    0.5286   -0.3411 O.2       1 <0>        -0.9382
      9 O2          2.5706   -1.2905   -0.1444 O.2       1 <0>        -0.9052
     10 C7          4.3938   -1.0860    1.6414 C.2       1 <0>        -0.6558
     11 C8          5.2568   -0.2628    2.4046 C.ar      1 <0>        -0.0367
     12 C9          5.9451    0.9259    2.1287 C.ar      1 <0>        -0.0663
     13 C10         6.7221    1.5001    3.0934 C.ar      1 <0>        -0.0435
     14 C11         6.8378    0.9154    4.3496 C.ar      1 <0>        -0.0794
     15 C12         6.1713   -0.2527    4.6437 C.ar      1 <0>        -0.1076
     16 C13         5.3722   -0.8564    3.6765 C.ar      1 <0>         0.1032
     17 N1          4.6024   -1.9960    3.6696 N.pl3     1 <0>        -0.5548
     18 H1          4.4923   -2.6077    4.4143 H         1 <0>         0.4261
     19 C14         4.0073   -2.1231    2.4294 C.2       1 <0>         0.1519
     20 C15         3.1027   -3.2099    2.0253 C.2       1 <0>         0.5636
     21 O3          2.7192   -3.2854    0.8733 O.2       1 <0>        -0.4670
     22 N2          2.6984   -4.1222    2.9313 N.am      1 <0>        -0.8422
     23 Cl1         7.5737    2.9730    2.7484 Cl        1 <0>        -0.0572
     24 H2          7.0831   -4.1136   -3.2553 H         1 <0>         0.1302
     25 H3          4.9370   -4.9450   -2.3800 H         1 <0>         0.1320
     26 H4          3.5413   -3.4951   -0.9612 H         1 <0>         0.1593
     27 H5          6.4344   -0.3798   -1.2989 H         1 <0>         0.1405
     28 H6          7.8294   -1.8292   -2.7189 H         1 <0>         0.1332
     29 H7          5.8616    1.3867    1.1555 H         1 <0>         0.1595
     30 H8          7.4567    1.3819    5.1017 H         1 <0>         0.1459
     31 H9          6.2681   -0.6996    5.6221 H         1 <0>         0.1394
     32 H10         3.0042   -4.0619    3.8499 H         1 <0>         0.3986
     33 H11         2.1018   -4.8390    2.6647 H         1 <0>         0.4189
@<TRIPOS>BOND
     1    1    6 ar
     2    1    2 ar
     3    1   24 1
     4    2    3 ar
     5    2   25 1
     6    3    4 ar
     7    3   26 1
     8    4    5 ar
     9    4    7 1
    10    5    6 ar
    11    5   27 1
    12    6   28 1
    13    7    8 2
    14    7    9 2
    15    7   10 1
    16   10   19 2
    17   10   11 1
    18   11   16 ar
    19   11   12 ar
    20   12   13 ar
    21   12   29 1
    22   13   14 ar
    23   13   23 1
    24   14   15 ar
    25   14   30 1
    26   15   16 ar
    27   15   31 1
    28   16   17 1
    29   17   18 1
    30   17   19 1
    31   19   20 1
    32   20   21 2
    33   20   22 am
    34   22   32 1
    35   22   33 1
@<TRIPOS>MOLECULE
CHEMBL108154
   32    33     0     0     0
SMALL
USER_CHARGES

@<TRIPOS>ATOM
      1 C1         -0.0187    1.5258    0.0104 C.3       1 <0>        -0.1459
      2 C2          0.0021   -0.0041    0.0020 C.3       1 <0>         0.0062
      3 C3          0.7421   -0.5109    1.2415 C.3       1 <0>        -0.1469
      4 C4         -1.3789   -0.5136    0.0125 C.1       1 <0>        -0.0340
      5 C5         -2.4803   -0.9199    0.0208 C.1       1 <0>        -0.2342
      6 C6         -3.8613   -1.4294    0.0313 C.3       1 <0>         0.2881
      7 C7         -3.8426   -2.9372    0.0230 C.ar      1 <0>        -0.2341
      8 C8         -4.8671   -3.6226   -0.6191 C.ar      1 <0>         0.2150
      9 C9         -4.8779   -5.0087   -0.6221 C.ar      1 <0>        -0.1601
     10 C10        -3.8612   -5.7047    0.0050 C.ar      1 <0>        -0.0276
     11 C11        -2.8372   -5.0220    0.6343 C.ar      1 <0>        -0.1772
     12 C12        -2.8267   -3.6357    0.6443 C.ar      1 <0>         0.1843
     13 F1         -1.8251   -2.9703    1.2602 F         1 <0>        -0.1126
     14 N1         -5.8667   -2.8941   -1.2741 N.am      1 <0>        -0.6580
     15 C13        -5.7123   -1.5663   -1.4492 C.2       1 <0>         0.6591
     16 O1         -6.6295   -0.9073   -1.8973 O.2       1 <0>        -0.4688
     17 O2         -4.5514   -0.9643   -1.1316 O.3       1 <0>        -0.3069
     18 C14        -4.5807   -0.9319    1.2865 C.3       1 <0>         0.4419
     19 F2         -4.6006    0.4670    1.2890 F         1 <0>        -0.1583
     20 F3         -5.8930   -1.4168    1.2950 F         1 <0>        -0.1696
     21 F4         -3.9066   -1.3907    2.4232 F         1 <0>        -0.1566
     22 H1          1.0039    1.9031    0.0027 H         1 <0>         0.0722
     23 H2         -0.5459    1.8868   -0.8726 H         1 <0>         0.0634
     24 H3         -0.5289    1.8773    0.9072 H         1 <0>         0.0618
     25 H4          0.5123   -0.3556   -0.8948 H         1 <0>         0.1059
     26 H5          0.2319   -0.1594    2.1383 H         1 <0>         0.0615
     27 H6          0.7568   -1.6008    1.2356 H         1 <0>         0.0631
     28 H7          1.7647   -0.1336    1.2338 H         1 <0>         0.0736
     29 H8         -5.6777   -5.5432   -1.1131 H         1 <0>         0.1505
     30 H9         -3.8673   -6.7847    0.0036 H         1 <0>         0.1522
     31 H10        -2.0430   -5.5701    1.1192 H         1 <0>         0.1516
     32 H11        -6.6637   -3.3409   -1.5997 H         1 <0>         0.4404
@<TRIPOS>BOND
     1    1    2 1
     2    1   22 1
     3    1   23 1
     4    1   24 1
     5    2    3 1
     6    2    4 1
     7    2   25 1
     8    3   26 1
     9    3   27 1
    10    3   28 1
    11    4    5 3
    12    5    6 1
    13    6   17 1
    14    6    7 1
    15    6   18 1
    16    7   12 ar
    17    7    8 ar
    18    8    9 ar
    19    8   14 1
    20    9   10 ar
    21    9   29 1
    22   10   11 ar
    23   10   30 1
    24   11   12 ar
    25   11   31 1
    26   12   13 1
    27   14   15 am
    28   14   32 1
    29   15   16 2
    30   15   17 1
    31   18   19 1
    32   18   20 1
    33   18   21 1
@<TRIPOS>MOLECULE
CHEMBL108154__1
   32    33     0     0     0
SMALL
USER_CHARGES

@<TRIPOS>ATOM
      1 C1         -0.0187    1.5258    0.0104 C.3       1 <0>        -0.1467
      2 C2          0.0021   -0.0041    0.0020 C.3       1 <0>         0.0066
      3 C3          0.7421   -0.5109    1.2415 C.3       1 <0>        -0.1475
      4 C4         -1.3789   -0.5136    0.0125 C.1       1 <0>        -0.0339
      5 C5         -2.4803   -0.9199    0.0208 C.1       1 <0>        -0.2343
      6 C6         -3.8613   -1.4294    0.0313 C.3       1 <0>         0.2880
      7 C7         -3.8426   -2.9372    0.0230 C.ar      1 <0>        -0.2341
      8 C8         -4.8548   -3.6295    0.6771 C.ar      1 <0>         0.2150
      9 C9         -4.8656   -5.0156    0.6654 C.ar      1 <0>        -0.1601
     10 C10        -3.8612   -5.7047    0.0116 C.ar      1 <0>        -0.0275
     11 C11        -2.8493   -5.0153   -0.6298 C.ar      1 <0>        -0.1772
     12 C12        -2.8388   -3.6289   -0.6251 C.ar      1 <0>         0.1844
     13 F1         -1.8496   -2.9568   -1.2535 F         1 <0>        -0.1129
     14 N1         -5.8416   -2.9083    1.3588 N.am      1 <0>        -0.6579
     15 C13        -5.6837   -1.5824    1.5452 C.2       1 <0>         0.6590
     16 O1         -6.5919   -0.9285    2.0186 O.2       1 <0>        -0.4688
     17 O2         -4.5290   -0.9769    1.2120 O.3       1 <0>        -0.3069
     18 C14        -4.6045   -0.9185   -1.2046 C.3       1 <0>         0.4420
     19 F2         -3.9522   -1.3651   -2.3589 F         1 <0>        -0.1566
     20 F3         -5.9167   -1.4035   -1.1933 F         1 <0>        -0.1696
     21 F4         -4.6242    0.4803   -1.1918 F         1 <0>        -0.1582
     22 H1          1.0039    1.9031    0.0027 H         1 <0>         0.0731
     23 H2         -0.5459    1.8868   -0.8726 H         1 <0>         0.0612
     24 H3         -0.5289    1.8773    0.9072 H         1 <0>         0.0627
     25 H4          0.5123   -0.3556   -0.8948 H         1 <0>         0.1062
     26 H5          0.2319   -0.1594    2.1383 H         1 <0>         0.0638
     27 H6          0.7568   -1.6008    1.2356 H         1 <0>         0.0625
     28 H7          1.7647   -0.1336    1.2338 H         1 <0>         0.0730
     29 H8         -5.6563   -5.5555    1.1652 H         1 <0>         0.1505
     30 H9         -3.8673   -6.7847    0.0015 H         1 <0>         0.1522
     31 H10        -2.0645   -5.5580   -1.1356 H         1 <0>         0.1516
     32 H11        -6.6326   -3.3585    1.6942 H         1 <0>         0.4405
@<TRIPOS>BOND
     1    1    2 1
     2    1   22 1
     3    1   23 1
     4    1   24 1
     5    2    3 1
     6    2    4 1
     7    2   25 1
     8    3   26 1
     9    3   27 1
    10    3   28 1
    11    4    5 3
    12    5    6 1
    13    6   17 1
    14    6    7 1
    15    6   18 1
    16    7   12 ar
    17    7    8 ar
    18    8    9 ar
    19    8   14 1
    20    9   10 ar
    21    9   29 1
    22   10   11 ar
    23   10   30 1
    24   11   12 ar
    25   11   31 1
    26   12   13 1
    27   14   15 am
    28   14   32 1
    29   15   16 2
    30   15   17 1
    31   18   19 1
    32   18   20 1
    33   18   21 1
@<TRIPOS>MOLECULE
CHEMBL366402
   42    44     0     0     0
SMALL
USER_CHARGES

@<TRIPOS>ATOM
      1 C1          0.0785    0.9445   -0.7273 C.3       1 <0>        -0.0891
      2 C2         -0.0637   -0.4496   -0.1731 C.2       1 <0>        -0.3030
      3 C3         -1.2708   -0.8957    0.2811 C.2       1 <0>         0.2250
      4 N1         -1.3865   -2.1290    0.7684 N.2       1 <0>        -0.5775
      5 C4         -0.3519   -2.9439    0.8254 C.2       1 <0>         0.6329
      6 N2          0.8758   -2.5540    0.3876 N.am      1 <0>        -0.6542
      7 H1          1.6269   -3.1658    0.4365 H         1 <0>         0.4108
      8 C5          1.0438   -1.3145   -0.1209 C.2       1 <0>         0.5477
      9 O1          2.1367   -0.9501   -0.5226 O.2       1 <0>        -0.5376
     10 N3         -0.5156   -4.2042    1.3342 N.pl3     1 <0>        -0.6949
     11 C6         -1.8320   -4.6369    1.8095 C.3       1 <0>         0.1567
     12 C7         -2.0118   -4.2505    3.2922 C.3       1 <0>        -0.1331
     13 C8         -2.7984   -5.4375    3.9014 C.3       1 <0>        -0.1251
     14 C9         -2.1818   -6.6621    3.1808 C.3       1 <0>        -0.1252
     15 C10        -1.9401   -6.1703    1.7387 C.3       1 <0>        -0.1340
     16 C11        -2.4745    0.0096    0.2314 C.3       1 <0>        -0.0330
     17 C12        -3.4105   -0.4583   -0.8531 C.ar      1 <0>        -0.1525
     18 C13        -3.3581    0.1192   -2.1099 C.ar      1 <0>         0.1358
     19 C14        -4.2187   -0.3115   -3.1056 C.ar      1 <0>        -0.1668
     20 C15        -5.1296   -1.3176   -2.8449 C.ar      1 <0>        -0.0603
     21 C16        -5.1831   -1.8948   -1.5902 C.ar      1 <0>        -0.1693
     22 C17        -4.3193   -1.4699   -0.5947 C.ar      1 <0>         0.1507
     23 F1         -4.3677   -2.0384    0.6299 F         1 <0>        -0.1169
     24 F2         -2.4681    1.1031   -2.3649 F         1 <0>        -0.1238
     25 H2          1.1284    1.1453   -0.9408 H         1 <0>         0.0717
     26 H3         -0.5021    1.0315   -1.6456 H         1 <0>         0.0712
     27 H4         -0.2878    1.6653    0.0038 H         1 <0>         0.0631
     28 H5          0.2401   -4.8107    1.3800 H         1 <0>         0.4102
     29 H6         -2.6157   -4.1791    1.2059 H         1 <0>         0.1068
     30 H7         -1.0423   -4.1452    3.7792 H         1 <0>         0.0675
     31 H8         -2.5856   -3.3278    3.3790 H         1 <0>         0.0774
     32 H9         -2.6334   -5.4988    4.9771 H         1 <0>         0.0698
     33 H10        -3.8616   -5.3522    3.6769 H         1 <0>         0.0719
     34 H11        -1.2398   -6.9462    3.6499 H         1 <0>         0.0668
     35 H12        -2.8797   -7.4993    3.1864 H         1 <0>         0.0704
     36 H13        -2.7768   -6.4566    1.1015 H         1 <0>         0.0793
     37 H14        -1.0131   -6.5924    1.3507 H         1 <0>         0.0703
     38 H15        -2.9891   -0.0171    1.1919 H         1 <0>         0.1042
     39 H16        -2.1537    1.0294    0.0194 H         1 <0>         0.1061
     40 H17        -4.1782    0.1393   -4.0862 H         1 <0>         0.1434
     41 H18        -5.8004   -1.6529   -3.6221 H         1 <0>         0.1437
     42 H19        -5.8958   -2.6804   -1.3874 H         1 <0>         0.1426
@<TRIPOS>BOND
     1    1    2 1
     2    1   25 1
     3    1   26 1
     4    1   27 1
     5    2    8 1
     6    2    3 2
     7    3    4 1
     8    3   16 1
     9    4    5 2
    10    5    6 1
    11    5   10 1
    12    6    7 1
    13    6    8 am
    14    8    9 2
    15   10   11 1
    16   10   28 1
    17   11   15 1
    18   11   12 1
    19   11   29 1
    20   12   13 1
    21   12   30 1
    22   12   31 1
    23   13   14 1
    24   13   32 1
    25   13   33 1
    26   14   15 1
    27   14   34 1
    28   14   35 1
    29   15   36 1
    30   15   37 1
    31   16   17 1
    32   16   38 1
    33   16   39 1
    34   17   22 ar
    35   17   18 ar
    36   18   19 ar
    37   18   24 1
    38   19   20 ar
    39   19   40 1
    40   20   21 ar
    41   20   41 1
    42   21   22 ar
    43   21   42 1
    44   22   23 1
@<TRIPOS>MOLECULE
CHEMBL29274
   33    35     0     0     0
SMALL
USER_CHARGES

@<TRIPOS>ATOM
      1 C1         -0.0167    1.3794    0.0096 C.ar      1 <0>        -0.0538
      2 C2          1.1662    2.0932    0.0022 C.ar      1 <0>        -0.1433
      3 C3          2.3798    1.4195   -0.0131 C.ar      1 <0>         0.1947
      4 C4          2.3898    0.0286   -0.0207 C.ar      1 <0>        -0.1360
      5 C5          1.2116   -0.6809   -0.0136 C.ar      1 <0>        -0.0475
      6 C6          0.0021   -0.0041    0.0020 C.ar      1 <0>        -0.0608
      7 Cl1        -1.4895   -0.8923    0.0121 Cl        1 <0>        -0.0524
      8 C7          3.7286   -0.6723   -0.0372 C.3       1 <0>         0.2219
      9 N1          4.9281    0.1824   -0.0441 N.am      1 <0>        -0.7102
     10 C8          4.7807    1.5195   -0.0355 C.2       1 <0>         0.7175
     11 O1          5.7797    2.2126   -0.0417 O.2       1 <0>        -0.5560
     12 N2          3.5854    2.1230   -0.0213 N.am      1 <0>        -0.6566
     13 C9          3.8009   -1.5650    1.1747 C.2       1 <0>        -0.2003
     14 C10         4.7438   -1.3842    2.0661 C.2       1 <0>        -0.0669
     15 C11         4.8161   -2.2769    3.2781 C.3       1 <0>        -0.1392
     16 C12         5.8071   -1.8944    4.3791 C.3       1 <0>        -0.1707
     17 C13         6.0928   -3.0964    3.4767 C.3       1 <0>        -0.1646
     18 C14         3.7784   -1.5653   -1.2786 C.3       1 <0>         0.4454
     19 F1          3.6305   -0.7781   -2.4256 F         1 <0>        -0.1719
     20 F2          5.0080   -2.2310   -1.3252 F         1 <0>        -0.1725
     21 F3          2.7422   -2.5035   -1.2200 F         1 <0>        -0.1694
     22 H1         -0.9606    1.9038    0.0260 H         1 <0>         0.1478
     23 H2          1.1467    3.1730    0.0078 H         1 <0>         0.1481
     24 H3          1.2287   -1.7608   -0.0199 H         1 <0>         0.1543
     25 H4          5.8133   -0.2140   -0.0544 H         1 <0>         0.4381
     26 H5          3.5560    3.0925   -0.0157 H         1 <0>         0.4315
     27 H6          3.0755   -2.3538    1.3084 H         1 <0>         0.1408
     28 H7          5.4692   -0.5954    1.9324 H         1 <0>         0.1196
     29 H8          3.8737   -2.7312    3.5843 H         1 <0>         0.1151
     30 H9          6.4068   -0.9970    4.2269 H         1 <0>         0.0974
     31 H10         5.5168   -2.0968    5.4101 H         1 <0>         0.1004
     32 H11         5.9904   -4.0896    3.9139 H         1 <0>         0.1015
     33 H12         6.8804   -2.9898    2.7307 H         1 <0>         0.0982
@<TRIPOS>BOND
     1    1    6 ar
     2    1    2 ar
     3    1   22 1
     4    2    3 ar
     5    2   23 1
     6    3   12 1
     7    3    4 ar
     8    4    5 ar
     9    4    8 1
    10    5    6 ar
    11    5   24 1
    12    6    7 1
    13    8    9 1
    14    8   13 1
    15    8   18 1
    16    9   10 am
    17    9   25 1
    18   10   11 2
    19   10   12 am
    20   12   26 1
    21   13   14 2
    22   13   27 1
    23   14   15 1
    24   14   28 1
    25   15   17 1
    26   15   16 1
    27   15   29 1
    28   16   17 1
    29   16   30 1
    30   16   31 1
    31   17   32 1
    32   17   33 1
    33   18   19 1
    34   18   20 1
    35   18   21 1
@<TRIPOS>MOLECULE
CHEMBL283619
   31    33     0     0     0
SMALL
USER_CHARGES

@<TRIPOS>ATOM
      1 C1         -0.0167    1.3794    0.0096 C.ar      1 <0>        -0.0497
      2 C2          1.1662    2.0932    0.0022 C.ar      1 <0>        -0.1432
      3 C3          2.3798    1.4195   -0.0131 C.ar      1 <0>         0.1994
      4 C4          2.3898    0.0286   -0.0207 C.ar      1 <0>        -0.1445
      5 C5          1.2116   -0.6809   -0.0136 C.ar      1 <0>        -0.0418
      6 C6          0.0021   -0.0041    0.0020 C.ar      1 <0>        -0.0616
      7 Cl1        -1.4895   -0.8923    0.0121 Cl        1 <0>        -0.0505
      8 C7          3.7286   -0.6723   -0.0372 C.3       1 <0>         0.3212
      9 N1          4.9281    0.1824   -0.0441 N.am      1 <0>        -0.7057
     10 C8          4.7807    1.5195   -0.0355 C.2       1 <0>         0.7192
     11 O1          5.7797    2.2126   -0.0417 O.2       1 <0>        -0.5517
     12 N2          3.5854    2.1230   -0.0213 N.am      1 <0>        -0.6563
     13 C9          3.7993   -1.5443    1.1466 C.1       1 <0>        -0.2426
     14 C10         3.8556   -2.2397    2.0907 C.1       1 <0>        -0.0409
     15 C11         3.9263   -3.1117    3.2746 C.3       1 <0>        -0.0698
     16 C12         4.9173   -2.7292    4.3756 C.3       1 <0>        -0.1579
     17 C13         5.2029   -3.9312    3.4732 C.3       1 <0>        -0.1574
     18 C14         3.7784   -1.5653   -1.2786 C.3       1 <0>         0.4478
     19 F1          3.6305   -0.7781   -2.4256 F         1 <0>        -0.1659
     20 F2          5.0080   -2.2310   -1.3252 F         1 <0>        -0.1702
     21 F3          2.7422   -2.5035   -1.2200 F         1 <0>        -0.1652
     22 H1         -0.9606    1.9038    0.0260 H         1 <0>         0.1497
     23 H2          1.1467    3.1730    0.0078 H         1 <0>         0.1506
     24 H3          1.2287   -1.7608   -0.0199 H         1 <0>         0.1543
     25 H4          5.8133   -0.2140   -0.0544 H         1 <0>         0.4396
     26 H5          3.5560    3.0925   -0.0157 H         1 <0>         0.4330
     27 H6          2.9839   -3.5660    3.5808 H         1 <0>         0.1377
     28 H7          5.5170   -1.8318    4.2234 H         1 <0>         0.1002
     29 H8          4.6270   -2.9316    5.4066 H         1 <0>         0.1102
     30 H9          5.1006   -4.9244    3.9104 H         1 <0>         0.1106
     31 H10         5.9905   -3.8246    2.7272 H         1 <0>         0.1013
@<TRIPOS>BOND
     1    1    6 ar
     2    1    2 ar
     3    1   22 1
     4    2    3 ar
     5    2   23 1
     6    3   12 1
     7    3    4 ar
     8    4    5 ar
     9    4    8 1
    10    5    6 ar
    11    5   24 1
    12    6    7 1
    13    8    9 1
    14    8   13 1
    15    8   18 1
    16    9   10 am
    17    9   25 1
    18   10   11 2
    19   10   12 am
    20   12   26 1
    21   13   14 3
    22   14   15 1
    23   15   17 1
    24   15   16 1
    25   15   27 1
    26   16   17 1
    27   16   28 1
    28   16   29 1
    29   17   30 1
    30   17   31 1
    31   18   19 1
    32   18   20 1
    33   18   21 1
@<TRIPOS>MOLECULE
CHEMBL55258
   34    36     0     0     0
SMALL
USER_CHARGES

@<TRIPOS>ATOM
      1 C1         -0.0187    1.5258    0.0104 C.3       1 <0>        -0.1476
      2 C2          0.0021   -0.0041    0.0020 C.3       1 <0>        -0.1344
      3 C3         -1.4333   -0.5336    0.0129 C.3       1 <0>         0.0873
      4 N1         -1.4134   -1.9985    0.0048 N.am      1 <0>        -0.5325
      5 C4         -1.4122   -2.5727   -1.2587 C.ar      1 <0>         0.1802
      6 C5         -2.2903   -2.0739   -2.2184 C.ar      1 <0>        -0.1398
      7 C6         -2.3200   -2.6148   -3.4884 C.ar      1 <0>        -0.0744
      8 C7         -1.4766   -3.6583   -3.8212 C.ar      1 <0>        -0.1289
      9 C8         -0.6010   -4.1622   -2.8777 C.ar      1 <0>        -0.0501
     10 C9         -0.5680   -3.6234   -1.5992 C.ar      1 <0>        -0.1464
     11 S1          0.5520   -4.2860   -0.4106 S.3       1 <0>        -0.0141
     12 C10        -0.5029   -4.8655    0.8761 C.ar      1 <0>        -0.0997
     13 C11        -0.4891   -6.2081    1.2308 C.ar      1 <0>        -0.0777
     14 C12        -1.3119   -6.6651    2.2403 C.ar      1 <0>        -0.0956
     15 C13        -2.1535   -5.7862    2.9034 C.ar      1 <0>        -0.1044
     16 C14        -2.1797   -4.4528    2.5626 C.ar      1 <0>        -0.0664
     17 C15        -1.3525   -3.9698    1.5392 C.ar      1 <0>        -0.0944
     18 C16        -1.3947   -2.5519    1.1884 C.2       1 <0>         0.5639
     19 O1         -1.4212   -1.7806    2.1278 O.2       1 <0>        -0.5252
     20 H1          1.0039    1.9031    0.0027 H         1 <0>         0.0601
     21 H2         -0.5459    1.8868   -0.8726 H         1 <0>         0.0555
     22 H3         -0.5289    1.8773    0.9072 H         1 <0>         0.0585
     23 H4          0.5123   -0.3556   -0.8948 H         1 <0>         0.0637
     24 H5          0.5293   -0.3651    0.8851 H         1 <0>         0.0700
     25 H6         -1.9435   -0.1821    0.9097 H         1 <0>         0.1033
     26 H7         -1.9605   -0.1726   -0.8702 H         1 <0>         0.0861
     27 H8         -2.9527   -1.2586   -1.9672 H         1 <0>         0.1351
     28 H9         -3.0052   -2.2214   -4.2246 H         1 <0>         0.1360
     29 H10        -1.5015   -4.0785   -4.8158 H         1 <0>         0.1365
     30 H11         0.0585   -4.9775   -3.1359 H         1 <0>         0.1407
     31 H12         0.1658   -6.8954    0.7159 H         1 <0>         0.1415
     32 H13        -1.3001   -7.7099    2.5138 H         1 <0>         0.1380
     33 H14        -2.7938   -6.1502    3.6933 H         1 <0>         0.1375
     34 H15        -2.8397   -3.7765    3.0856 H         1 <0>         0.1375
@<TRIPOS>BOND
     1    1    2 1
     2    1   20 1
     3    1   21 1
     4    1   22 1
     5    2    3 1
     6    2   23 1
     7    2   24 1
     8    3    4 1
     9    3   25 1
    10    3   26 1
    11    4   18 am
    12    4    5 1
    13    5   10 ar
    14    5    6 ar
    15    6    7 ar
    16    6   27 1
    17    7    8 ar
    18    7   28 1
    19    8    9 ar
    20    8   29 1
    21    9   10 ar
    22    9   30 1
    23   10   11 1
    24   11   12 1
    25   12   17 ar
    26   12   13 ar
    27   13   14 ar
    28   13   31 1
    29   14   15 ar
    30   14   32 1
    31   15   16 ar
    32   15   33 1
    33   16   17 ar
    34   16   34 1
    35   17   18 1
    36   18   19 2
@<TRIPOS>MOLECULE
CHEMBL368084
   34    36     0     0     0
SMALL
USER_CHARGES

@<TRIPOS>ATOM
      1 C1         -0.0167    1.3782    0.0096 C.ar      1 <0>        -0.0755
      2 C2          1.1703    2.0860    0.0021 C.ar      1 <0>        -0.1508
      3 C3          2.3786    1.4101   -0.0131 C.ar      1 <0>         0.0990
      4 C4          2.3962    0.0256   -0.0207 C.ar      1 <0>        -0.1547
      5 C5          1.2079   -0.6800   -0.0132 C.ar      1 <0>        -0.0791
      6 C6          0.0021   -0.0041    0.0020 C.ar      1 <0>        -0.0995
      7 C7         -1.2930   -0.7747    0.0103 C.3       1 <0>        -0.0028
      8 C8         -1.7382   -1.0239   -1.4077 C.2       1 <0>         0.0269
      9 C9         -1.4113   -2.1032   -2.1550 C.2       1 <0>        -0.2182
     10 C10        -2.0277   -1.9457   -3.4034 C.2       1 <0>        -0.1164
     11 C11        -2.7159   -0.7499   -3.3534 C.2       1 <0>        -0.0951
     12 O1         -2.5254   -0.2159   -2.1279 O.3       1 <0>        -0.1440
     13 C12        -3.4856   -0.1874   -4.3966 C.2       1 <0>         0.4239
     14 C13        -4.1826    1.1328   -4.1913 C.3       1 <0>        -0.1923
     15 C14        -4.9291    1.5072   -5.4457 C.2       1 <0>         0.4535
     16 O2         -4.8981    0.7742   -6.4112 O.2       1 <0>        -0.4456
     17 C15        -5.6958    2.7624   -5.4990 C.2       1 <0>        -0.0265
     18 N1         -6.4087    3.2125   -6.5497 N.2       1 <0>        -0.5315
     19 C16        -6.9376    4.3562   -6.1989 C.2       1 <0>         0.0532
     20 N2         -6.5532    4.6137   -4.9341 N.2       1 <0>        -0.3754
     21 N3         -5.8113    3.6426   -4.5257 N.2       1 <0>        -0.3109
     22 O3         -3.5853   -0.7680   -5.4586 O.2       1 <0>        -0.3990
     23 F1          3.5396    2.1009   -0.0209 F         1 <0>        -0.1401
     24 H1         -0.9592    1.9052    0.0260 H         1 <0>         0.1386
     25 H2          1.1554    3.1659    0.0077 H         1 <0>         0.1385
     26 H3          3.3381   -0.5027   -0.0329 H         1 <0>         0.1359
     27 H4          1.2213   -1.7599   -0.0195 H         1 <0>         0.1342
     28 H5         -1.1453   -1.7280    0.5176 H         1 <0>         0.1099
     29 H6         -2.0553   -0.1984    0.5345 H         1 <0>         0.1004
     30 H7         -0.7905   -2.9316   -1.8469 H         1 <0>         0.1551
     31 H8         -1.9744   -2.6259   -4.2406 H         1 <0>         0.1607
     32 H9         -4.8851    1.0477   -3.3622 H         1 <0>         0.1294
     33 H10        -7.5686    4.9816   -6.8130 H         1 <0>         0.1692
     34 H11        -3.4444    1.9020   -3.9645 H         1 <0>         0.1289
@<TRIPOS>BOND
     1    1    6 ar
     2    1    2 ar
     3    1   24 1
     4    2    3 ar
     5    2   25 1
     6    3    4 ar
     7    3   23 1
     8    4    5 ar
     9    4   26 1
    10    5    6 ar
    11    5   27 1
    12    6    7 1
    13    7    8 1
    14    7   28 1
    15    7   29 1
    16    8   12 1
    17    8    9 2
    18    9   10 1
    19    9   30 1
    20   10   11 2
    21   10   31 1
    22   11   12 1
    23   11   13 1
    24   13   14 1
    25   13   22 2
    26   14   32 1
    27   14   34 1
    28   14   15 1
    29   15   17 1
    30   15   16 2
    31   17   21 2
    32   17   18 1
    33   18   19 2
    34   19   20 1
    35   19   33 1
    36   20   21 1
@<TRIPOS>MOLECULE
CHEMBL368084__1
   35    37     0     0     0
SMALL
USER_CHARGES

@<TRIPOS>ATOM
      1 C1         -0.0167    1.3782    0.0096 C.ar      1 <0>        -0.0770
      2 C2          1.1703    2.0860    0.0021 C.ar      1 <0>        -0.1523
      3 C3          2.3786    1.4101   -0.0131 C.ar      1 <0>         0.1027
      4 C4          2.3962    0.0256   -0.0207 C.ar      1 <0>        -0.1528
      5 C5          1.2079   -0.6800   -0.0132 C.ar      1 <0>        -0.0773
      6 C6          0.0021   -0.0041    0.0020 C.ar      1 <0>        -0.1034
      7 C7         -1.2930   -0.7747    0.0103 C.3       1 <0>        -0.0046
      8 C8         -1.7382   -1.0239   -1.4077 C.2       1 <0>         0.0419
      9 C9         -1.4113   -2.1032   -2.1550 C.2       1 <0>        -0.2194
     10 C10        -2.0277   -1.9457   -3.4034 C.2       1 <0>        -0.0985
     11 C11        -2.7159   -0.7499   -3.3534 C.2       1 <0>        -0.1154
     12 O1         -2.5254   -0.2159   -2.1279 O.3       1 <0>        -0.1483
     13 C12        -3.4856   -0.1874   -4.3966 C.2       1 <0>         0.4296
     14 C13        -4.1826    1.1328   -4.1913 C.3       1 <0>        -0.1903
     15 C14        -4.9291    1.5072   -5.4457 C.2       1 <0>         0.4461
     16 O2         -4.8981    0.7742   -6.4112 O.2       1 <0>        -0.3894
     17 C15        -5.6958    2.7624   -5.4990 C.2       1 <0>         0.1148
     18 N1         -5.8088    3.6656   -4.5057 N.2       1 <0>        -0.4752
     19 C16        -6.5700    4.6338   -4.9461 C.2       1 <0>         0.2011
     20 N2         -6.9274    4.3311   -6.2088 N.pl3     1 <0>        -0.3982
     21 H1         -7.4920    4.8720   -6.7829 H         1 <0>         0.4546
     22 N3         -6.3886    3.2051   -6.5282 N.2       1 <0>        -0.2471
     23 O3         -3.5853   -0.7680   -5.4586 O.2       1 <0>        -0.4024
     24 F1          3.5396    2.1009   -0.0209 F         1 <0>        -0.1377
     25 H2         -0.9592    1.9052    0.0260 H         1 <0>         0.1363
     26 H3          1.1554    3.1659    0.0077 H         1 <0>         0.1383
     27 H4          3.3381   -0.5027   -0.0329 H         1 <0>         0.1381
     28 H5          1.2213   -1.7599   -0.0195 H         1 <0>         0.1355
     29 H6         -1.1453   -1.7280    0.5176 H         1 <0>         0.1131
     30 H7         -2.0553   -0.1984    0.5345 H         1 <0>         0.1011
     31 H8         -0.7905   -2.9316   -1.8469 H         1 <0>         0.1591
     32 H9         -1.9744   -2.6259   -4.2406 H         1 <0>         0.1632
     33 H10        -4.8851    1.0477   -3.3622 H         1 <0>         0.1408
     34 H11        -6.8599    5.5169   -4.3961 H         1 <0>         0.2327
     35 H12        -3.4444    1.9020   -3.9645 H         1 <0>         0.1404
@<TRIPOS>BOND
     1    1    6 ar
     2    1    2 ar
     3    1   25 1
     4    2    3 ar
     5    2   26 1
     6    3    4 ar
     7    3   24 1
     8    4    5 ar
     9    4   27 1
    10    5    6 ar
    11    5   28 1
    12    6    7 1
    13    7    8 1
    14    7   29 1
    15    7   30 1
    16    8   12 1
    17    8    9 2
    18    9   10 1
    19    9   31 1
    20   10   11 2
    21   10   32 1
    22   11   12 1
    23   11   13 1
    24   13   14 1
    25   13   23 2
    26   14   33 1
    27   14   35 1
    28   14   15 1
    29   15   17 1
    30   15   16 2
    31   17   22 2
    32   17   18 1
    33   18   19 2
    34   19   20 1
    35   19   34 1
    36   20   21 1
    37   20   22 1
@<TRIPOS>MOLECULE
CHEMBL138639
   35    37     0     0     0
SMALL
USER_CHARGES

@<TRIPOS>ATOM
      1 C1          0.0180   -1.1779   -0.0044 C.1       1 <0>        -0.1460
      2 C2          0.0021   -0.0041    0.0020 C.1       1 <0>        -0.2133
      3 C3         -0.0179    1.4678    0.0101 C.3       1 <0>         0.2387
      4 C4         -0.6892    1.9756    1.3009 C.3       1 <0>         0.0938
      5 H1         -1.0218    1.1374    1.9131 H         1 <0>         0.0903
      6 C5          0.4285    2.7653    2.0245 C.3       1 <0>        -0.1941
      7 C6          1.7099    2.1818    1.3766 C.3       1 <0>         0.3095
      8 H2          1.9809    1.2361    1.8460 H         1 <0>         0.1117
      9 O1          1.3271    1.9749   -0.0000 O.3       1 <0>        -0.3400
     10 N1          2.8162    3.1377    1.4697 N.pl3     1 <0>        -0.4729
     11 C7          3.1884    4.0375    0.5139 C.2       1 <0>         0.2529
     12 N2          4.2098    4.7284    0.9282 N.2       1 <0>        -0.4530
     13 C8          4.5577    4.3176    2.1726 C.ar      1 <0>        -0.1514
     14 C9          3.6644    3.2964    2.5363 C.ar      1 <0>         0.3524
     15 N3          3.7887    2.7212    3.7282 N.ar      1 <0>        -0.6156
     16 C10         4.7389    3.1052    4.5652 C.ar      1 <0>         0.6318
     17 N4          5.6017    4.0671    4.2639 N.ar      1 <0>        -0.6294
     18 C11         5.5542    4.6897    3.0913 C.ar      1 <0>         0.5461
     19 N5          6.4573    5.6928    2.7867 N.pl3     1 <0>        -0.8148
     20 N6          4.8358    2.4819    5.7984 N.pl3     1 <0>        -0.8170
     21 O2         -1.7891    2.8328    0.9887 O.3       1 <0>        -0.5495
     22 C12        -0.7779    1.9843   -1.2132 C.3       1 <0>         0.1025
     23 O3         -0.2120    1.4209   -2.3983 O.3       1 <0>        -0.5650
     24 H3          0.0322   -2.2278   -0.0102 H         1 <0>         0.2245
     25 H4          0.3427    3.8332    1.8237 H         1 <0>         0.1022
     26 H5          0.4111    2.5699    3.0967 H         1 <0>         0.1037
     27 H6          2.7065    4.1579   -0.4451 H         1 <0>         0.2210
     28 H7          6.4068    6.1474    1.9314 H         1 <0>         0.4209
     29 H8          7.1409    5.9412    3.4285 H         1 <0>         0.4100
     30 H9          4.2133    1.7769    6.0357 H         1 <0>         0.4149
     31 H10         5.5262    2.7505    6.4246 H         1 <0>         0.4165
     32 H11        -2.2487    3.1815    1.7647 H         1 <0>         0.3916
     33 H12        -1.8262    1.6954   -1.1383 H         1 <0>         0.0734
     34 H13        -0.7025    3.0708   -1.2557 H         1 <0>         0.0696
     35 H14        -0.6454    1.7053   -3.2147 H         1 <0>         0.3839
@<TRIPOS>BOND
     1    1    2 3
     2    1   24 1
     3    2    3 1
     4    3    9 1
     5    3    4 1
     6    3   22 1
     7    4    5 1
     8    4    6 1
     9    4   21 1
    10    6    7 1
    11    6   25 1
    12    6   26 1
    13    7    8 1
    14    7    9 1
    15    7   10 1
    16   10   14 1
    17   10   11 1
    18   11   12 2
    19   11   27 1
    20   12   13 1
    21   13   18 ar
    22   13   14 ar
    23   14   15 ar
    24   15   16 ar
    25   16   17 ar
    26   16   20 1
    27   17   18 ar
    28   18   19 1
    29   19   28 1
    30   19   29 1
    31   20   30 1
    32   20   31 1
    33   21   32 1
    34   22   23 1
    35   22   33 1
    36   22   34 1
    37   23   35 1
@<TRIPOS>MOLECULE
CHEMBL357250
   44    47     0     0     0
SMALL
USER_CHARGES

@<TRIPOS>ATOM
      1 C1         -0.0187    1.5258    0.0104 C.3       1 <0>        -0.1724
      2 C2          0.0021   -0.0041    0.0020 C.3       1 <0>         0.1264
      3 N1          0.6878   -0.4765   -1.2033 N.pl3     1 <0>        -0.5898
      4 C3         -0.0260   -0.7074   -2.3685 C.ar      1 <0>         0.4020
      5 C4          0.2978    0.0011   -3.5361 C.ar      1 <0>        -0.1879
      6 C5         -0.3795   -0.3046   -4.7210 C.ar      1 <0>        -0.0017
      7 C6         -1.3744   -1.2671   -4.6805 C.ar      1 <0>        -0.1829
      8 C7         -1.6677   -1.8910   -3.4820 C.ar      1 <0>         0.1484
      9 N2         -1.0014   -1.6030   -2.3807 N.ar      1 <0>        -0.4990
     10 C8          1.2978    1.0738   -3.5151 C.2       1 <0>         0.5766
     11 O1          1.0718    2.0590   -4.1906 O.2       1 <0>        -0.5273
     12 N3          2.4267    1.0597   -2.8215 N.am      1 <0>        -0.6327
     13 C9          2.8962    0.0222   -2.0068 C.2       1 <0>         0.0338
     14 C10         2.0517   -0.6903   -1.1900 C.2       1 <0>         0.3998
     15 N4          2.5582   -1.6413   -0.3502 N.am      1 <0>        -0.6058
     16 C11         3.8672   -1.9468   -0.3559 C.2       1 <0>         0.5257
     17 C12         4.7451   -1.2697   -1.2074 C.2       1 <0>        -0.2203
     18 C13         4.2618   -0.2896   -2.0266 C.2       1 <0>         0.0238
     19 C14         5.1985    0.4577   -2.9404 C.3       1 <0>        -0.0482
     20 C15         5.1833   -0.1799   -4.3058 C.ar      1 <0>        -0.0846
     21 C16         6.0688   -1.1991   -4.6026 C.ar      1 <0>        -0.1086
     22 C17         6.0549   -1.7839   -5.8551 C.ar      1 <0>        -0.1176
     23 C18         5.1551   -1.3500   -6.8106 C.ar      1 <0>        -0.1173
     24 C19         4.2689   -0.3314   -6.5134 C.ar      1 <0>        -0.1180
     25 C20         4.2800    0.2505   -5.2596 C.ar      1 <0>        -0.1105
     26 O2          4.2915   -2.8196    0.3865 O.2       1 <0>        -0.5416
     27 H1          1.0039    1.9031    0.0027 H         1 <0>         0.0604
     28 H2         -0.5459    1.8868   -0.8726 H         1 <0>         0.0585
     29 H3         -0.5289    1.8773    0.9072 H         1 <0>         0.0757
     30 H4          0.5293   -0.3651    0.8851 H         1 <0>         0.0798
     31 H5         -1.0205   -0.3814    0.0098 H         1 <0>         0.0924
     32 H6         -0.1330    0.1978   -5.6447 H         1 <0>         0.1506
     33 H7         -1.9168   -1.5278   -5.5773 H         1 <0>         0.1510
     34 H8         -2.4570   -2.6274   -3.4469 H         1 <0>         0.1699
     35 H9          2.9859    1.8497   -2.8849 H         1 <0>         0.4122
     36 H10         5.7951   -1.5220   -1.2190 H         1 <0>         0.1614
     37 H11         4.8765    1.4959   -3.0207 H         1 <0>         0.0880
     38 H12         6.2091    0.4212   -2.5336 H         1 <0>         0.1005
     39 H13         6.7718   -1.5381   -3.8561 H         1 <0>         0.1247
     40 H14         6.7472   -2.5797   -6.0872 H         1 <0>         0.1240
     41 H15         5.1446   -1.8064   -7.7893 H         1 <0>         0.1224
     42 H16         3.5662    0.0078   -7.2601 H         1 <0>         0.1220
     43 H17         3.5852    1.0437   -5.0263 H         1 <0>         0.1191
     44 H18         1.9632   -2.1036    0.2607 H         1 <0>         0.4171
@<TRIPOS>BOND
     1    1    2 1
     2    1   27 1
     3    1   28 1
     4    1   29 1
     5    2   30 1
     6    2   31 1
     7    2    3 1
     8    3   14 1
     9    3    4 1
    10    4    9 ar
    11    4    5 ar
    12    5    6 ar
    13    5   10 1
    14    6    7 ar
    15    6   32 1
    16    7    8 ar
    17    7   33 1
    18    8    9 ar
    19    8   34 1
    20   10   11 2
    21   10   12 am
    22   12   35 1
    23   12   13 1
    24   13   14 2
    25   13   18 1
    26   14   15 1
    27   15   16 am
    28   15   44 1
    29   16   26 2
    30   16   17 1
    31   17   18 2
    32   17   36 1
    33   18   19 1
    34   19   20 1
    35   19   37 1
    36   19   38 1
    37   20   25 ar
    38   20   21 ar
    39   21   22 ar
    40   21   39 1
    41   22   23 ar
    42   22   40 1
    43   23   24 ar
    44   23   41 1
    45   24   25 ar
    46   24   42 1
    47   25   43 1
@<TRIPOS>MOLECULE
CHEMBL88397
   35    36     0     0     0
SMALL
USER_CHARGES

@<TRIPOS>ATOM
      1 C1         -0.0184    1.3744   -0.0186 C.ar      1 <0>        -0.1295
      2 C2          1.1685    2.0877   -0.0288 C.ar      1 <0>        -0.0735
      3 C3          2.3824    1.4252   -0.0423 C.ar      1 <0>        -0.1241
      4 C4          2.4194    0.0447   -0.0461 C.ar      1 <0>         0.0130
      5 C5          1.2236   -0.6829   -0.0359 C.ar      1 <0>        -0.1649
      6 C6          0.0006   -0.0036   -0.0218 C.ar      1 <0>        -0.0637
      7 C7          1.2528   -2.1533   -0.0399 C.2       1 <0>         0.3934
      8 O1          2.3147   -2.7387   -0.0521 O.2       1 <0>        -0.4132
      9 C8         -0.0371   -2.9326   -0.0288 C.3       1 <0>        -0.1800
     10 C9          0.2722   -4.4310   -0.0357 C.3       1 <0>         0.1327
     11 N1         -0.9817   -5.1885   -0.0249 N.pl3     1 <0>        -0.6837
     12 C10        -0.9550   -6.5360   -0.0286 C.2       1 <0>         0.5185
     13 S1          0.5442   -7.3624   -0.0459 S.2       1 <0>        -0.4904
     14 N2         -2.1086   -7.2329   -0.0187 N.pl3     1 <0>        -0.6185
     15 C11        -2.0846   -8.6218   -0.1321 C.ar      1 <0>         0.3541
     16 C12        -3.2800   -9.3255   -0.2289 C.ar      1 <0>        -0.1930
     17 C13        -3.2424  -10.7039   -0.3409 C.ar      1 <0>        -0.0242
     18 C14        -2.0044  -11.3342   -0.3524 C.ar      1 <0>        -0.1688
     19 C15        -0.8567  -10.5719   -0.2523 C.ar      1 <0>         0.1563
     20 N3         -0.9242   -9.2580   -0.1520 N.ar      1 <0>        -0.4033
     21 Br1        -1.8916  -13.2158   -0.5027 Br        1 <0>        -0.0380
     22 Cl1         3.9439   -0.7855   -0.0642 Cl        1 <0>        -0.0289
     23 H1         -0.9619    1.8997   -0.0035 H         1 <0>         0.1368
     24 H2          1.1461    3.1675   -0.0265 H         1 <0>         0.1387
     25 H3          3.3036    1.9888   -0.0502 H         1 <0>         0.1413
     26 H4         -0.9264   -0.5578   -0.0134 H         1 <0>         0.1392
     27 H5         -0.6047   -2.6829    0.8676 H         1 <0>         0.1076
     28 H6         -0.6227   -2.6784   -0.9123 H         1 <0>         0.1077
     29 H7          0.8399   -4.6807   -0.9321 H         1 <0>         0.0978
     30 H8          0.8579   -4.6852    0.8477 H         1 <0>         0.0976
     31 H9         -1.8311   -4.7202   -0.0152 H         1 <0>         0.3952
     32 H10        -2.9554   -6.7678    0.0673 H         1 <0>         0.4095
     33 H11        -4.2252   -8.8031   -0.2164 H         1 <0>         0.1412
     34 H12        -4.1546  -11.2769   -0.4174 H         1 <0>         0.1483
     35 H13         0.1081  -11.0571   -0.2608 H         1 <0>         0.1688
@<TRIPOS>BOND
     1    1    6 ar
     2    1    2 ar
     3    1   23 1
     4    2    3 ar
     5    2   24 1
     6    3    4 ar
     7    3   25 1
     8    4    5 ar
     9    4   22 1
    10    5    6 ar
    11    5    7 1
    12    6   26 1
    13    7    8 2
    14    7    9 1
    15    9   10 1
    16    9   27 1
    17    9   28 1
    18   10   11 1
    19   10   29 1
    20   10   30 1
    21   11   12 1
    22   11   31 1
    23   12   13 2
    24   12   14 1
    25   14   15 1
    26   14   32 1
    27   15   20 ar
    28   15   16 ar
    29   16   17 ar
    30   16   33 1
    31   17   18 ar
    32   17   34 1
    33   18   19 ar
    34   18   21 1
    35   19   20 ar
    36   19   35 1
@<TRIPOS>MOLECULE
CHEMBL103716
   57    61     0     0     0
SMALL
USER_CHARGES

@<TRIPOS>ATOM
      1 C1         -0.0187    1.5258    0.0104 C.3       1 <0>        -0.1713
      2 C2          0.0021   -0.0041    0.0020 C.3       1 <0>         0.1384
      3 N1         -1.3723   -0.5112    0.0124 N.pl3     1 <0>        -0.5781
      4 C3         -2.0240   -0.7561    1.2209 C.ar      1 <0>         0.3677
      5 C4         -3.1936   -0.0711    1.5499 C.ar      1 <0>         0.0927
      6 C5         -3.8489   -0.3836    2.7384 C.ar      1 <0>        -0.0874
      7 C6         -3.2980   -1.3436    3.5709 C.ar      1 <0>        -0.1234
      8 C7         -2.1106   -1.9649    3.1969 C.ar      1 <0>         0.1983
      9 N2         -1.5183   -1.6571    2.0491 N.ar      1 <0>        -0.4687
     10 C8         -1.5010   -2.9805    4.0884 C.2       1 <0>         0.0510
     11 C9         -0.3577   -3.6289    3.8176 C.2       1 <0>        -0.1367
     12 C10        -0.1388   -4.5517    5.0022 C.3       1 <0>        -0.1558
     13 C11        -1.3348   -4.2622    5.8872 C.2       1 <0>         0.1199
     14 N3         -2.0307   -3.3629    5.2823 N.2       1 <0>        -0.4736
     15 N4         -3.6946    0.9516    0.7503 N.am      1 <0>        -0.5359
     16 C12        -3.7329    0.9804   -0.5734 C.2       1 <0>         0.5748
     17 O1         -4.2288    1.9611   -1.0935 O.2       1 <0>        -0.5225
     18 C13        -3.2285   -0.0679   -1.4657 C.ar      1 <0>        -0.1936
     19 C14        -2.0400   -0.7469   -1.1771 C.ar      1 <0>         0.4102
     20 N5         -1.5587   -1.6319   -2.0380 N.ar      1 <0>        -0.4955
     21 C15        -2.1940   -1.9346   -3.1532 C.ar      1 <0>         0.1554
     22 C16        -3.3988   -1.3373   -3.4761 C.ar      1 <0>        -0.1514
     23 C17        -3.9293   -0.3942   -2.6319 C.ar      1 <0>        -0.0005
     24 C18        -4.1223   -1.7209   -4.7412 C.3       1 <0>        -0.0671
     25 C19        -5.0722   -2.8850   -4.4525 C.3       1 <0>        -0.0766
     26 C20        -5.7958   -3.2686   -5.7175 C.ar      1 <0>        -0.0841
     27 C21        -6.9969   -2.6636   -6.0373 C.ar      1 <0>        -0.1169
     28 C22        -7.6606   -3.0155   -7.1977 C.ar      1 <0>        -0.1178
     29 C23        -7.1230   -3.9719   -8.0386 C.ar      1 <0>        -0.1236
     30 C24        -5.9214   -4.5762   -7.7193 C.ar      1 <0>        -0.1180
     31 C25        -5.2556   -4.2213   -6.5610 C.ar      1 <0>        -0.1166
     32 C26        -4.2369    2.1209    1.4466 C.3       1 <0>         0.0644
     33 H1          1.0039    1.9031    0.0027 H         1 <0>         0.0720
     34 H2         -0.5459    1.8868   -0.8726 H         1 <0>         0.0543
     35 H3         -0.5289    1.8773    0.9072 H         1 <0>         0.0540
     36 H4          0.5123   -0.3556   -0.8948 H         1 <0>         0.0834
     37 H5          0.5293   -0.3651    0.8851 H         1 <0>         0.0825
     38 H6         -4.7694    0.1138    3.0061 H         1 <0>         0.1505
     39 H7         -3.7842   -1.6068    4.4987 H         1 <0>         0.1549
     40 H8          0.2701   -3.5182    2.9458 H         1 <0>         0.1609
     41 H9         -0.1385   -5.5941    4.6836 H         1 <0>         0.1294
     42 H10         0.7900   -4.3047    5.5165 H         1 <0>         0.1298
     43 H11        -1.5576   -4.7177    6.8408 H         1 <0>         0.1948
     44 H12        -1.7655   -2.6619   -3.8268 H         1 <0>         0.1659
     45 H13        -4.8661    0.0886   -2.8678 H         1 <0>         0.1464
     46 H14        -4.6940   -0.8674   -5.1058 H         1 <0>         0.0807
     47 H15        -3.3974   -2.0224   -5.4973 H         1 <0>         0.0828
     48 H16        -4.5006   -3.7385   -4.0878 H         1 <0>         0.0757
     49 H17        -5.7972   -2.5836   -3.6964 H         1 <0>         0.0737
     50 H18        -7.4169   -1.9164   -5.3803 H         1 <0>         0.1211
     51 H19        -8.5994   -2.5433   -7.4472 H         1 <0>         0.1219
     52 H20        -7.6419   -4.2473   -8.9448 H         1 <0>         0.1212
     53 H21        -5.5016   -5.3237   -8.3761 H         1 <0>         0.1220
     54 H22        -4.3150   -4.6907   -6.3134 H         1 <0>         0.1219
     55 H23        -3.4433    2.8519    1.6016 H         1 <0>         0.0679
     56 H24        -5.0291    2.5668    0.8451 H         1 <0>         0.0940
     57 H25        -4.6419    1.8142    2.4109 H         1 <0>         0.0807
@<TRIPOS>BOND
     1    1    2 1
     2    1   33 1
     3    1   34 1
     4    1   35 1
     5    2    3 1
     6    2   36 1
     7    2   37 1
     8    3   19 1
     9    3    4 1
    10    4    9 ar
    11    4    5 ar
    12    5    6 ar
    13    5   15 1
    14    6    7 ar
    15    6   38 1
    16    7    8 ar
    17    7   39 1
    18    8    9 ar
    19    8   10 1
    20   10   14 1
    21   10   11 2
    22   11   12 1
    23   11   40 1
    24   12   13 1
    25   12   41 1
    26   12   42 1
    27   13   14 2
    28   13   43 1
    29   15   16 am
    30   15   32 1
    31   16   17 2
    32   16   18 1
    33   18   23 ar
    34   18   19 ar
    35   19   20 ar
    36   20   21 ar
    37   21   22 ar
    38   21   44 1
    39   22   23 ar
    40   22   24 1
    41   23   45 1
    42   24   25 1
    43   24   46 1
    44   24   47 1
    45   25   26 1
    46   25   48 1
    47   25   49 1
    48   26   31 ar
    49   26   27 ar
    50   27   28 ar
    51   27   50 1
    52   28   29 ar
    53   28   51 1
    54   29   30 ar
    55   29   52 1
    56   30   31 ar
    57   30   53 1
    58   31   54 1
    59   32   55 1
    60   32   56 1
    61   32   57 1
@<TRIPOS>MOLECULE
CHEMBL297453
   51    54     0     0     0
SMALL
USER_CHARGES

@<TRIPOS>ATOM
      1 C1         -0.0167    1.3824    0.0096 C.ar      1 <0>        -0.1232
      2 C2          1.1697    2.0917    0.0021 C.ar      1 <0>        -0.0728
      3 C3          2.3792    1.4226   -0.0135 C.ar      1 <0>        -0.0978
      4 C4          2.4066    0.0362   -0.0217 C.ar      1 <0>         0.0943
      5 C5          1.2160   -0.6806   -0.0137 C.ar      1 <0>         0.0658
      6 C6          0.0021   -0.0041    0.0020 C.ar      1 <0>         0.0986
      7 O1         -1.1658   -0.7009    0.0099 O.3       1 <0>        -0.4875
      8 O2          1.2387   -2.0413   -0.0217 O.3       1 <0>        -0.4804
      9 O3          3.5971   -0.6212   -0.0380 O.3       1 <0>        -0.4833
     10 C7          1.1446    3.5984    0.0105 C.3       1 <0>         0.1463
     11 H1          0.2126    3.9475    0.4550 H         1 <0>         0.1098
     12 C8          1.2611    4.1251   -1.4256 C.3       1 <0>         0.0607
     13 H2          0.4684    3.6972   -2.0393 H         1 <0>         0.1110
     14 C9          1.1215    5.6490   -1.3913 C.3       1 <0>        -0.0887
     15 C10         2.0188    6.2172   -0.3211 C.ar      1 <0>        -0.1934
     16 C11         2.3348    7.5707   -0.3637 C.ar      1 <0>         0.1618
     17 C12         3.1535    8.1275    0.6048 C.ar      1 <0>        -0.1998
     18 C13         3.6597    7.3319    1.6220 C.ar      1 <0>         0.1590
     19 C14         3.3464    5.9836    1.6646 C.ar      1 <0>        -0.1810
     20 C15         2.5265    5.4225    0.6909 C.ar      1 <0>         0.1700
     21 O4          2.2521    4.0938    0.7639 O.3       1 <0>        -0.2919
     22 O5          4.4620    7.8746    2.5751 O.3       1 <0>        -0.4915
     23 O6          1.8385    8.3503   -1.3601 O.3       1 <0>        -0.4908
     24 O7          2.5347    3.7694   -1.9673 O.3       1 <0>        -0.3234
     25 C16         2.6005    3.5753   -3.2991 C.2       1 <0>         0.5152
     26 O8          1.6037    3.7045   -3.9818 O.2       1 <0>        -0.4949
     27 C17         3.8823    3.2060   -3.9281 C.ar      1 <0>        -0.1035
     28 C18         5.0283    3.0514   -3.1432 C.ar      1 <0>        -0.0764
     29 C19         6.2283    2.7053   -3.7353 C.ar      1 <0>         0.0874
     30 C20         6.2961    2.5111   -5.1125 C.ar      1 <0>         0.0957
     31 C21         5.1559    2.6649   -5.8970 C.ar      1 <0>         0.0871
     32 C22         3.9519    3.0043   -5.3093 C.ar      1 <0>        -0.0733
     33 O9          5.2258    2.4749   -7.2418 O.3       1 <0>        -0.4778
     34 O10         7.4772    2.1713   -5.6921 O.3       1 <0>        -0.4725
     35 O11         7.3439    2.5547   -2.9722 O.3       1 <0>        -0.4781
     36 H3         -0.9596    1.9089    0.0260 H         1 <0>         0.1412
     37 H4          3.3040    1.9803   -0.0197 H         1 <0>         0.1453
     38 H5         -1.5123   -0.8977   -0.8712 H         1 <0>         0.3973
     39 H6          1.2542   -2.4396    0.8593 H         1 <0>         0.3921
     40 H7          3.9506   -0.8164    0.8407 H         1 <0>         0.3917
     41 H8          1.4057    6.0611   -2.3595 H         1 <0>         0.0993
     42 H9          0.0865    5.9136   -1.1749 H         1 <0>         0.0973
     43 H10         3.3971    9.1790    0.5682 H         1 <0>         0.1392
     44 H11         3.7408    5.3648    2.4571 H         1 <0>         0.1416
     45 H12         3.9848    8.2124    3.3453 H         1 <0>         0.3966
     46 H13         0.9859    8.7570   -1.1536 H         1 <0>         0.3948
     47 H14         4.9764    3.2026   -2.0751 H         1 <0>         0.1522
     48 H15         3.0669    3.1188   -5.9176 H         1 <0>         0.1531
     49 H16         5.0544    1.5647   -7.5199 H         1 <0>         0.3927
     50 H17         7.6276    1.2177   -5.7487 H         1 <0>         0.3919
     51 H18         7.4749    1.6560   -2.6401 H         1 <0>         0.3928
@<TRIPOS>BOND
     1    1    6 ar
     2    1    2 ar
     3    1   36 1
     4    2    3 ar
     5    2   10 1
     6    3    4 ar
     7    3   37 1
     8    4    5 ar
     9    4    9 1
    10    5    6 ar
    11    5    8 1
    12    6    7 1
    13    7   38 1
    14    8   39 1
    15    9   40 1
    16   10   11 1
    17   10   21 1
    18   10   12 1
    19   12   13 1
    20   12   14 1
    21   12   24 1
    22   14   15 1
    23   14   41 1
    24   14   42 1
    25   15   20 ar
    26   15   16 ar
    27   16   17 ar
    28   16   23 1
    29   17   18 ar
    30   17   43 1
    31   18   19 ar
    32   18   22 1
    33   19   20 ar
    34   19   44 1
    35   20   21 1
    36   22   45 1
    37   23   46 1
    38   24   25 1
    39   25   26 2
    40   25   27 1
    41   27   32 ar
    42   27   28 ar
    43   28   29 ar
    44   28   47 1
    45   29   30 ar
    46   29   35 1
    47   30   31 ar
    48   30   34 1
    49   31   32 ar
    50   31   33 1
    51   32   48 1
    52   33   49 1
    53   34   50 1
    54   35   51 1
@<TRIPOS>MOLECULE
CHEMBL320663
   48    51     0     0     0
SMALL
USER_CHARGES

@<TRIPOS>ATOM
      1 C1         -0.0187    1.5258    0.0104 C.3       1 <0>        -0.1713
      2 C2          0.0021   -0.0041    0.0020 C.3       1 <0>         0.1354
      3 N1          0.7106   -0.4894    1.1889 N.pl3     1 <0>        -0.5774
      4 C3          2.0889   -0.7000    1.1500 C.ar      1 <0>         0.3804
      5 C4          2.9401    0.0079    1.9951 C.ar      1 <0>         0.0971
      6 C5          4.3025   -0.2729    1.9669 C.ar      1 <0>        -0.0729
      7 C6          4.7668   -1.2270    1.0728 C.ar      1 <0>        -0.1352
      8 C7          3.8684   -1.8665    0.2413 C.ar      1 <0>         0.1839
      9 N2          2.5782   -1.5926    0.3004 N.ar      1 <0>        -0.4682
     10 Cl1         4.4430   -3.0451   -0.8965 Cl        1 <0>        -0.0155
     11 N3          2.4733    1.0232    2.8270 N.am      1 <0>        -0.5372
     12 C8          1.3456    1.0257    3.5224 C.2       1 <0>         0.5757
     13 O1          1.1189    2.0028    4.2094 O.2       1 <0>        -0.5162
     14 C9          0.3474   -0.0481    3.5345 C.ar      1 <0>        -0.1991
     15 C10         0.0203   -0.7384    2.3627 C.ar      1 <0>         0.4209
     16 N4         -0.9437   -1.6476    2.3792 N.ar      1 <0>        -0.4957
     17 C11        -1.5843   -1.9626    3.4880 C.ar      1 <0>         0.1739
     18 C12        -1.2762   -1.3540    4.6909 C.ar      1 <0>        -0.1776
     19 C13        -0.3038   -0.3876    4.7255 C.ar      1 <0>         0.0176
     20 C14        -1.9997   -1.7523    5.9515 C.3       1 <0>         0.1758
     21 N5         -1.2775   -2.8474    6.6037 N.pl3     1 <0>        -0.7479
     22 C15        -1.7599   -3.3889    7.7974 C.ar      1 <0>         0.2136
     23 C16        -2.9275   -2.8940    8.3645 C.ar      1 <0>        -0.1975
     24 C17        -3.4020   -3.4320    9.5446 C.ar      1 <0>        -0.0726
     25 C18        -2.7160   -4.4618   10.1620 C.ar      1 <0>        -0.1778
     26 C19        -1.5534   -4.9568    9.6002 C.ar      1 <0>        -0.0726
     27 C20        -1.0764   -4.4272    8.4172 C.ar      1 <0>        -0.1942
     28 C21         3.3189    2.2136    2.9457 C.3       1 <0>         0.0637
     29 H1          1.0039    1.9031    0.0027 H         1 <0>         0.0545
     30 H2         -0.5459    1.8868   -0.8726 H         1 <0>         0.0746
     31 H3         -0.5289    1.8773    0.9072 H         1 <0>         0.0550
     32 H4         -1.0205   -0.3814    0.0098 H         1 <0>         0.0864
     33 H5          0.5123   -0.3556   -0.8948 H         1 <0>         0.0858
     34 H6          4.9847    0.2411    2.6277 H         1 <0>         0.1599
     35 H7          5.8188   -1.4671    1.0279 H         1 <0>         0.1593
     36 H8         -2.3634   -2.7098    3.4560 H         1 <0>         0.1697
     37 H9         -0.0517    0.1043    5.6534 H         1 <0>         0.1500
     38 H10        -2.0508   -0.8980    6.6264 H         1 <0>         0.0747
     39 H11        -3.0091   -2.0800    5.7030 H         1 <0>         0.0769
     40 H12        -0.4643   -3.1965    6.2066 H         1 <0>         0.3995
     41 H13        -3.4634   -2.0893    7.8832 H         1 <0>         0.1203
     42 H14        -4.3097   -3.0478    9.9860 H         1 <0>         0.1206
     43 H15        -3.0889   -4.8802   11.0852 H         1 <0>         0.1180
     44 H16        -1.0200   -5.7611   10.0849 H         1 <0>         0.1205
     45 H17        -0.1708   -4.8173    7.9766 H         1 <0>         0.1179
     46 H18         3.0390    2.9361    2.1790 H         1 <0>         0.0702
     47 H19         3.1832    2.6588    3.9313 H         1 <0>         0.0959
     48 H20         4.3637    1.9317    2.8151 H         1 <0>         0.0815
@<TRIPOS>BOND
     1    1    2 1
     2    1   29 1
     3    1   30 1
     4    1   31 1
     5    2    3 1
     6    2   32 1
     7    2   33 1
     8    3   15 1
     9    3    4 1
    10    4    9 ar
    11    4    5 ar
    12    5    6 ar
    13    5   11 1
    14    6    7 ar
    15    6   34 1
    16    7    8 ar
    17    7   35 1
    18    8    9 ar
    19    8   10 1
    20   11   12 am
    21   11   28 1
    22   12   13 2
    23   12   14 1
    24   14   19 ar
    25   14   15 ar
    26   15   16 ar
    27   16   17 ar
    28   17   18 ar
    29   17   36 1
    30   18   19 ar
    31   18   20 1
    32   19   37 1
    33   20   21 1
    34   20   38 1
    35   20   39 1
    36   21   22 1
    37   21   40 1
    38   22   27 ar
    39   22   23 ar
    40   23   24 ar
    41   23   41 1
    42   24   25 ar
    43   24   42 1
    44   25   26 ar
    45   25   43 1
    46   26   27 ar
    47   26   44 1
    48   27   45 1
    49   28   46 1
    50   28   47 1
    51   28   48 1
@<TRIPOS>MOLECULE
CHEMBL54318
   33    34     0     0     0
SMALL
USER_CHARGES

@<TRIPOS>ATOM
      1 C1         -0.0184    1.5028    0.0103 C.3       1 <0>        -0.1166
      2 C2          0.0021   -0.0041    0.0020 C.ar      1 <0>        -0.0964
      3 C3          0.0057   -0.6887   -1.1989 C.ar      1 <0>        -0.0828
      4 C4          0.0245   -2.0708   -1.2065 C.ar      1 <0>        -0.0966
      5 C5          0.0400   -2.7685   -0.0132 C.ar      1 <0>        -0.0484
      6 C6          0.0373   -2.0839    1.1877 C.ar      1 <0>        -0.4573
      7 C7          0.0229   -0.7016    1.1953 C.ar      1 <0>        -0.0526
      8 S1          0.0565   -2.9731    2.7088 S.o       1 <0>         1.3975
      9 O1         -0.3909   -2.0243    3.6673 O.2       1 <0>        -0.8406
     10 C8          1.7706   -3.1661    3.0681 C.ar      1 <0>        -0.3757
     11 C9          2.4063   -2.2701    3.9005 C.ar      1 <0>        -0.1057
     12 C10         3.7539   -2.4156    4.1869 C.ar      1 <0>        -0.0535
     13 C11         4.4756   -3.4590    3.6423 C.ar      1 <0>        -0.1644
     14 C12         3.8526   -4.3719    2.8020 C.ar      1 <0>         0.2554
     15 C13         2.4856   -4.2307    2.5142 C.ar      1 <0>        -0.0477
     16 C14         1.8298   -5.1688    1.6537 C.1       1 <0>         0.2424
     17 N1          1.3096   -5.9131    0.9711 N.1       1 <0>        -0.3994
     18 N2          4.5774   -5.4234    2.2524 N.pl3     1 <0>        -0.8636
     19 C15         0.0274   -2.8172   -2.5157 C.3       1 <0>        -0.1162
     20 H1          1.0042    1.8801    0.0026 H         1 <0>         0.0718
     21 H2         -0.5455    1.8639   -0.8728 H         1 <0>         0.0687
     22 H3         -0.5286    1.8543    0.9071 H         1 <0>         0.0686
     23 H4         -0.0064   -0.1436   -2.1312 H         1 <0>         0.1262
     24 H5          0.0540   -3.8484   -0.0191 H         1 <0>         0.1280
     25 H6          0.0245   -0.1667    2.1335 H         1 <0>         0.1299
     26 H7          1.8511   -1.4502    4.3315 H         1 <0>         0.1379
     27 H8          4.2430   -1.7082    4.8400 H         1 <0>         0.1349
     28 H9          5.5260   -3.5650    3.8700 H         1 <0>         0.1365
     29 H10         5.5208   -5.5207    2.4558 H         1 <0>         0.4073
     30 H11         4.1396   -6.0598    1.6656 H         1 <0>         0.4020
     31 H12         1.0557   -2.9831   -2.8370 H         1 <0>         0.0716
     32 H13        -0.4727   -3.7772   -2.3878 H         1 <0>         0.0703
     33 H14        -0.4985   -2.2310   -3.2693 H         1 <0>         0.0686
@<TRIPOS>BOND
     1    1    2 1
     2    1   20 1
     3    1   21 1
     4    1   22 1
     5    2    7 ar
     6    2    3 ar
     7    3    4 ar
     8    3   23 1
     9    4    5 ar
    10    4   19 1
    11    5    6 ar
    12    5   24 1
    13    6    7 ar
    14    6    8 1
    15    7   25 1
    16    8    9 2
    17    8   10 1
    18   10   15 ar
    19   10   11 ar
    20   11   12 ar
    21   11   26 1
    22   12   13 ar
    23   12   27 1
    24   13   14 ar
    25   13   28 1
    26   14   15 ar
    27   14   18 1
    28   15   16 1
    29   16   17 3
    30   18   29 1
    31   18   30 1
    32   19   31 1
    33   19   32 1
    34   19   33 1
@<TRIPOS>MOLECULE
CHEMBL54318__1
   33    34     0     0     0
SMALL
USER_CHARGES

@<TRIPOS>ATOM
      1 C1         -0.0184    1.5028    0.0103 C.3       1 <0>        -0.1149
      2 C2          0.0021   -0.0041    0.0020 C.ar      1 <0>        -0.0993
      3 C3          0.0057   -0.6887   -1.1989 C.ar      1 <0>        -0.0838
      4 C4          0.0245   -2.0708   -1.2065 C.ar      1 <0>        -0.0972
      5 C5          0.0400   -2.7685   -0.0132 C.ar      1 <0>        -0.0563
      6 C6          0.0373   -2.0839    1.1877 C.ar      1 <0>        -0.4589
      7 C7          0.0229   -0.7016    1.1953 C.ar      1 <0>        -0.0459
      8 S1          0.0565   -2.9731    2.7088 S.o       1 <0>         1.4063
      9 O1         -0.3685   -4.2802    2.3482 O.2       1 <0>        -0.8380
     10 C8          1.7706   -3.1661    3.0681 C.ar      1 <0>        -0.3809
     11 C9          2.4063   -2.2701    3.9005 C.ar      1 <0>        -0.0986
     12 C10         3.7539   -2.4156    4.1869 C.ar      1 <0>        -0.0594
     13 C11         4.4756   -3.4590    3.6423 C.ar      1 <0>        -0.1654
     14 C12         3.8526   -4.3719    2.8020 C.ar      1 <0>         0.2496
     15 C13         2.4856   -4.2307    2.5142 C.ar      1 <0>        -0.0473
     16 C14         1.8298   -5.1688    1.6537 C.1       1 <0>         0.2390
     17 N1          1.3096   -5.9131    0.9711 N.1       1 <0>        -0.3923
     18 N2          4.5774   -5.4234    2.2524 N.pl3     1 <0>        -0.8656
     19 C15         0.0274   -2.8172   -2.5157 C.3       1 <0>        -0.1174
     20 H1          1.0042    1.8801    0.0026 H         1 <0>         0.0720
     21 H2         -0.5455    1.8639   -0.8728 H         1 <0>         0.0664
     22 H3         -0.5286    1.8543    0.9071 H         1 <0>         0.0711
     23 H4         -0.0064   -0.1436   -2.1312 H         1 <0>         0.1248
     24 H5          0.0540   -3.8484   -0.0191 H         1 <0>         0.1265
     25 H6          0.0245   -0.1667    2.1335 H         1 <0>         0.1366
     26 H7          1.8511   -1.4502    4.3315 H         1 <0>         0.1436
     27 H8          4.2430   -1.7082    4.8400 H         1 <0>         0.1372
     28 H9          5.5260   -3.5650    3.8700 H         1 <0>         0.1344
     29 H10         5.5208   -5.5207    2.4558 H         1 <0>         0.4062
     30 H11         4.1396   -6.0598    1.6656 H         1 <0>         0.4013
     31 H12         1.0557   -2.9831   -2.8370 H         1 <0>         0.0702
     32 H13        -0.4727   -3.7772   -2.3878 H         1 <0>         0.0670
     33 H14        -0.4985   -2.2310   -3.2693 H         1 <0>         0.0693
@<TRIPOS>BOND
     1    1    2 1
     2    1   20 1
     3    1   21 1
     4    1   22 1
     5    2    7 ar
     6    2    3 ar
     7    3    4 ar
     8    3   23 1
     9    4    5 ar
    10    4   19 1
    11    5    6 ar
    12    5   24 1
    13    6    7 ar
    14    6    8 1
    15    7   25 1
    16    8    9 2
    17    8   10 1
    18   10   15 ar
    19   10   11 ar
    20   11   12 ar
    21   11   26 1
    22   12   13 ar
    23   12   27 1
    24   13   14 ar
    25   13   28 1
    26   14   15 ar
    27   14   18 1
    28   15   16 1
    29   16   17 3
    30   18   29 1
    31   18   30 1
    32   19   31 1
    33   19   32 1
    34   19   33 1
@<TRIPOS>MOLECULE
CHEMBL312397
   47    51     0     0     0
SMALL
USER_CHARGES

@<TRIPOS>ATOM
      1 C1         -0.0187    1.5258    0.0104 C.3       1 <0>        -0.1750
      2 C2          0.0021   -0.0041    0.0020 C.3       1 <0>         0.1397
      3 N1         -1.3723   -0.5112    0.0124 N.pl3     1 <0>        -0.5799
      4 C3         -2.0200   -0.7545    1.2117 C.ar      1 <0>         0.4089
      5 C4         -3.2160   -0.0802    1.5076 C.ar      1 <0>        -0.1994
      6 C5         -3.8970   -0.4029    2.6867 C.ar      1 <0>         0.0008
      7 C6         -3.3375   -1.3439    3.5341 C.ar      1 <0>        -0.1844
      8 C7         -2.1325   -1.9321    3.1961 C.ar      1 <0>         0.1506
      9 N2         -1.5177   -1.6302    2.0689 N.ar      1 <0>        -0.5017
     10 C8         -3.7298    0.9732    0.6281 C.2       1 <0>         0.5746
     11 O1         -4.2297    1.9450    1.1611 O.2       1 <0>        -0.5118
     12 N3         -3.6976    0.9610   -0.6963 N.am      1 <0>        -0.5418
     13 C9         -3.2049   -0.0587   -1.5096 C.ar      1 <0>         0.1099
     14 C10        -2.0454   -0.7488   -1.1851 C.ar      1 <0>         0.3731
     15 N4         -1.5634   -1.6647   -2.0144 N.ar      1 <0>        -0.4810
     16 C11        -2.1809   -1.9789   -3.1472 C.ar      1 <0>         0.1913
     17 C12        -3.3700   -1.3491   -3.5057 C.ar      1 <0>        -0.1366
     18 C13        -3.8870   -0.3822   -2.6800 C.ar      1 <0>        -0.0732
     19 C14        -1.5990   -3.0085   -4.0381 C.2       1 <0>        -0.0790
     20 C15        -2.1033   -3.4331   -5.2239 C.2       1 <0>         0.1109
     21 N5         -1.2890   -4.3918   -5.7554 N.pl3     1 <0>        -0.5490
     22 H1         -1.4429   -4.8452   -6.5990 H         1 <0>         0.4436
     23 C16        -0.2219   -4.6214   -4.9245 C.ar      1 <0>         0.1732
     24 C17        -0.3586   -3.7657   -3.8132 C.ar      1 <0>        -0.1139
     25 C18         0.6052   -3.7946   -2.8110 C.ar      1 <0>         0.2183
     26 N6          1.6342   -4.6120   -2.9056 N.ar      1 <0>        -0.4612
     27 C19         1.7950   -5.4260   -3.9356 C.ar      1 <0>         0.1018
     28 C20         0.8843   -5.4678   -4.9682 C.ar      1 <0>        -0.1128
     29 C21        -4.2359    2.1414   -1.3769 C.3       1 <0>         0.0557
     30 H2          1.0039    1.9031    0.0027 H         1 <0>         0.0744
     31 H3         -0.5459    1.8868   -0.8726 H         1 <0>         0.0550
     32 H4         -0.5289    1.8773    0.9072 H         1 <0>         0.0577
     33 H5          0.5123   -0.3556   -0.8948 H         1 <0>         0.0778
     34 H6          0.5293   -0.3651    0.8851 H         1 <0>         0.0861
     35 H7         -4.8364    0.0712    2.9301 H         1 <0>         0.1509
     36 H8         -3.8382   -1.6166    4.4513 H         1 <0>         0.1522
     37 H9         -1.6868   -2.6515    3.8671 H         1 <0>         0.1701
     38 H10        -3.8787   -1.6197   -4.4192 H         1 <0>         0.1499
     39 H11        -4.8060    0.1228   -2.9388 H         1 <0>         0.1553
     40 H12        -3.0122   -3.0681   -5.6789 H         1 <0>         0.2067
     41 H13         0.5101   -3.1452   -1.9533 H         1 <0>         0.2135
     42 H14         2.6566   -6.0767   -3.9649 H         1 <0>         0.2092
     43 H15         1.0309   -6.1372   -5.8030 H         1 <0>         0.1813
     44 H16        -4.5866    2.8597   -0.6359 H         1 <0>         0.1097
     45 H17        -3.4547    2.5982   -1.9845 H         1 <0>         0.0724
     46 H18        -5.0668    1.8444   -2.0168 H         1 <0>         0.0735
     47 H19         2.2960   -4.6168   -2.1964 H         1 <0>         0.4525
@<TRIPOS>BOND
     1    1    2 1
     2    1   30 1
     3    1   31 1
     4    1   32 1
     5    2    3 1
     6    2   33 1
     7    2   34 1
     8    3   14 1
     9    3    4 1
    10    4    9 ar
    11    4    5 ar
    12    5    6 ar
    13    5   10 1
    14    6    7 ar
    15    6   35 1
    16    7    8 ar
    17    7   36 1
    18    8    9 ar
    19    8   37 1
    20   10   11 2
    21   10   12 am
    22   12   13 1
    23   12   29 1
    24   13   18 ar
    25   13   14 ar
    26   14   15 ar
    27   15   16 ar
    28   16   17 ar
    29   16   19 1
    30   17   18 ar
    31   17   38 1
    32   18   39 1
    33   19   24 1
    34   19   20 2
    35   20   21 1
    36   20   40 1
    37   21   22 1
    38   21   23 1
    39   23   28 ar
    40   23   24 ar
    41   24   25 ar
    42   25   26 ar
    43   25   41 1
    44   26   27 ar
    45   26   47 1
    46   27   28 ar
    47   27   42 1
    48   28   43 1
    49   29   44 1
    50   29   45 1
    51   29   46 1
@<TRIPOS>MOLECULE
CHEMBL68353
   35    38     0     0     0
SMALL
USER_CHARGES

@<TRIPOS>ATOM
      1 C1         -0.0167    1.3792    0.0096 C.ar      1 <0>        -0.0981
      2 C2          1.1685    2.0927    0.0021 C.ar      1 <0>        -0.1203
      3 C3          2.3774    1.4277   -0.0129 C.ar      1 <0>        -0.0807
      4 C4          2.4029    0.0332   -0.0206 C.ar      1 <0>        -0.0639
      5 C5          1.2047   -0.6805   -0.0130 C.ar      1 <0>        -0.0892
      6 C6          0.0021   -0.0041    0.0020 C.ar      1 <0>        -0.1195
      7 C7          3.6966   -0.6864   -0.0373 C.2       1 <0>         0.1579
      8 C8          3.7276   -2.0299   -0.0504 C.2       1 <0>        -0.2494
      9 C9          5.0853   -2.6951   -0.0638 C.3       1 <0>         0.2410
     10 C10         5.9801   -1.8582   -0.9411 C.ar      1 <0>        -0.2203
     11 C11         6.8625   -2.4292   -1.8355 C.ar      1 <0>         0.2303
     12 C12         7.7051   -1.6126   -2.5781 C.ar      1 <0>        -0.1579
     13 C13         7.6162   -0.2372   -2.4565 C.ar      1 <0>        -0.0266
     14 C14         6.6825    0.3357   -1.6077 C.ar      1 <0>        -0.0740
     15 C15         5.8524   -0.4758   -0.8579 C.ar      1 <0>         0.1754
     16 O1          4.8756    0.0081   -0.0453 O.3       1 <0>        -0.2247
     17 Cl1         6.5557    2.0629   -1.4877 Cl        1 <0>        -0.0349
     18 N1          6.8448   -3.8156   -2.0222 N.am      1 <0>        -0.6560
     19 C16         5.8888   -4.5606   -1.4390 C.2       1 <0>         0.7220
     20 O2          5.8126   -5.7391   -1.7283 O.2       1 <0>        -0.5492
     21 N2          5.0169   -4.0604   -0.5526 N.am      1 <0>        -0.7039
     22 C17         5.6600   -2.6956    1.3542 C.3       1 <0>         0.4407
     23 F1          4.8011   -3.3993    2.2052 F         1 <0>        -0.1709
     24 F2          6.9167   -3.3102    1.3477 F         1 <0>        -0.1730
     25 F3          5.7877   -1.3778    1.8061 F         1 <0>        -0.1625
     26 H1         -0.9604    1.9041    0.0260 H         1 <0>         0.1292
     27 H2          1.1474    3.1725    0.0077 H         1 <0>         0.1310
     28 H3          3.3020    1.9858   -0.0191 H         1 <0>         0.1344
     29 H4          1.2181   -1.7604   -0.0193 H         1 <0>         0.1302
     30 H5         -0.9264   -0.5556    0.0082 H         1 <0>         0.1322
     31 H6          2.8179   -2.6119   -0.0509 H         1 <0>         0.1680
     32 H7          8.4290   -2.0505   -3.2494 H         1 <0>         0.1552
     33 H8          8.2800    0.3951   -3.0275 H         1 <0>         0.1591
     34 H9          7.5217   -4.2395   -2.5725 H         1 <0>         0.4365
     35 H10         4.3089   -4.6359   -0.2233 H         1 <0>         0.4317
@<TRIPOS>BOND
     1    1    6 ar
     2    1    2 ar
     3    1   26 1
     4    2    3 ar
     5    2   27 1
     6    3    4 ar
     7    3   28 1
     8    4    5 ar
     9    4    7 1
    10    5    6 ar
    11    5   29 1
    12    6   30 1
    13    7   16 1
    14    7    8 2
    15    8    9 1
    16    8   31 1
    17    9   21 1
    18    9   10 1
    19    9   22 1
    20   10   15 ar
    21   10   11 ar
    22   11   12 ar
    23   11   18 1
    24   12   13 ar
    25   12   32 1
    26   13   14 ar
    27   13   33 1
    28   14   15 ar
    29   14   17 1
    30   15   16 1
    31   18   19 am
    32   18   34 1
    33   19   20 2
    34   19   21 am
    35   21   35 1
    36   22   23 1
    37   22   24 1
    38   22   25 1
@<TRIPOS>MOLECULE
CHEMBL68353__1
   35    38     0     0     0
SMALL
USER_CHARGES

@<TRIPOS>ATOM
      1 C1         -0.0167    1.3792    0.0096 C.ar      1 <0>        -0.0982
      2 C2          1.1685    2.0927    0.0021 C.ar      1 <0>        -0.1203
      3 C3          2.3774    1.4277   -0.0129 C.ar      1 <0>        -0.0807
      4 C4          2.4029    0.0332   -0.0206 C.ar      1 <0>        -0.0642
      5 C5          1.2047   -0.6805   -0.0130 C.ar      1 <0>        -0.0893
      6 C6          0.0021   -0.0041    0.0020 C.ar      1 <0>        -0.1195
      7 C7          3.6966   -0.6864   -0.0373 C.2       1 <0>         0.1570
      8 C8          3.7276   -2.0299   -0.0504 C.2       1 <0>        -0.2488
      9 C9          5.0852   -2.6950   -0.0713 C.3       1 <0>         0.2408
     10 C10         5.9940   -1.8749    0.8075 C.ar      1 <0>        -0.2181
     11 C11         6.8904   -2.4628    1.6767 C.ar      1 <0>         0.2297
     12 C12         7.7448   -1.6605    2.4214 C.ar      1 <0>        -0.1569
     13 C13         7.6542   -0.2830    2.3276 C.ar      1 <0>        -0.0273
     14 C14         6.7066    0.3059    1.5054 C.ar      1 <0>        -0.0724
     15 C15         5.8652   -0.4912    0.7529 C.ar      1 <0>         0.1728
     16 O1          4.8756    0.0081   -0.0453 O.3       1 <0>        -0.2247
     17 Cl1         6.5782    2.0351    1.4206 Cl        1 <0>        -0.0347
     18 N1          6.8754   -3.8525    1.8371 N.am      1 <0>        -0.6559
     19 C16         5.9107   -4.5865    1.2543 C.2       1 <0>         0.7220
     20 O2          5.8393   -5.7705    1.5215 O.2       1 <0>        -0.5491
     21 N2          5.0244   -4.0695    0.3923 N.am      1 <0>        -0.7039
     22 C17         5.6373   -2.6683   -1.4979 C.3       1 <0>         0.4408
     23 F1          5.7580   -1.3420   -1.9265 F         1 <0>        -0.1623
     24 F2          6.8939   -3.2827   -1.5232 F         1 <0>        -0.1731
     25 F3          4.7649   -3.3557   -2.3486 F         1 <0>        -0.1709
     26 H1         -0.9604    1.9041    0.0260 H         1 <0>         0.1291
     27 H2          1.1474    3.1725    0.0077 H         1 <0>         0.1310
     28 H3          3.3020    1.9858   -0.0191 H         1 <0>         0.1343
     29 H4          1.2181   -1.7604   -0.0193 H         1 <0>         0.1301
     30 H5         -0.9264   -0.5556    0.0082 H         1 <0>         0.1321
     31 H6          2.8179   -2.6120   -0.0458 H         1 <0>         0.1679
     32 H7          8.4787   -2.1110    3.0731 H         1 <0>         0.1553
     33 H8          8.3271    0.3383    2.8999 H         1 <0>         0.1592
     34 H9          7.5610   -4.2868    2.3684 H         1 <0>         0.4365
     35 H10         4.3112   -4.6386    0.0634 H         1 <0>         0.4318
@<TRIPOS>BOND
     1    1    6 ar
     2    1    2 ar
     3    1   26 1
     4    2    3 ar
     5    2   27 1
     6    3    4 ar
     7    3   28 1
     8    4    5 ar
     9    4    7 1
    10    5    6 ar
    11    5   29 1
    12    6   30 1
    13    7   16 1
    14    7    8 2
    15    8    9 1
    16    8   31 1
    17    9   21 1
    18    9   10 1
    19    9   22 1
    20   10   15 ar
    21   10   11 ar
    22   11   12 ar
    23   11   18 1
    24   12   13 ar
    25   12   32 1
    26   13   14 ar
    27   13   33 1
    28   14   15 ar
    29   14   17 1
    30   15   16 1
    31   18   19 am
    32   18   34 1
    33   19   20 2
    34   19   21 am
    35   21   35 1
    36   22   23 1
    37   22   24 1
    38   22   25 1
@<TRIPOS>MOLECULE
CHEMBL116350
   37    39     0     0     0
SMALL
USER_CHARGES

@<TRIPOS>ATOM
      1 C1         -0.0370    1.3693    0.0041 C.ar      1 <0>        -0.1432
      2 C2          1.1478    2.0930   -0.0016 C.ar      1 <0>        -0.0975
      3 C3          2.3649    1.4481   -0.0136 C.ar      1 <0>        -0.1292
      4 C4          2.4101    0.0576   -0.0195 C.ar      1 <0>         0.0951
      5 C5          1.2069   -0.6710   -0.0132 C.ar      1 <0>        -0.0988
      6 C6         -0.0158    0.0032   -0.0016 C.ar      1 <0>        -0.0717
      7 C7          1.5898   -2.0850   -0.0218 C.2       1 <0>        -0.1751
      8 C8          2.9314   -2.1281   -0.0323 C.2       1 <0>         0.0662
      9 N1          3.4390   -0.8574   -0.0311 N.pl3     1 <0>        -0.5935
     10 H1          4.3830   -0.6344   -0.0372 H         1 <0>         0.4178
     11 C9          0.6549   -3.2669   -0.0189 C.3       1 <0>        -0.0528
     12 C10         0.2284   -3.5833   -1.4538 C.3       1 <0>         0.1278
     13 N2         -0.6805   -4.7323   -1.4510 N.pl3     1 <0>        -0.6811
     14 C11        -1.1877   -5.1931   -2.6115 C.2       1 <0>         0.5206
     15 S1         -0.7699   -4.4358   -4.0890 S.2       1 <0>        -0.5011
     16 N3         -2.0238   -6.2502   -2.6090 N.pl3     1 <0>        -0.6197
     17 C12        -2.6334   -6.6594   -3.7936 C.ar      1 <0>         0.3550
     18 C13        -3.5759   -7.6814   -3.7658 C.ar      1 <0>        -0.1936
     19 C14        -4.1737   -8.0781   -4.9486 C.ar      1 <0>        -0.0243
     20 C15        -3.8065   -7.4358   -6.1245 C.ar      1 <0>        -0.1694
     21 C16        -2.8628   -6.4280   -6.0781 C.ar      1 <0>         0.1559
     22 N4         -2.3138   -6.0678   -4.9336 N.ar      1 <0>        -0.4027
     23 Br1        -4.5898   -7.9363   -7.7713 Br        1 <0>        -0.0389
     24 H2         -0.9829    1.8903    0.0177 H         1 <0>         0.1228
     25 H3          1.1148    3.1724    0.0030 H         1 <0>         0.1258
     26 H4          3.2810    2.0200   -0.0187 H         1 <0>         0.1203
     27 H5         -0.9415   -0.5532    0.0033 H         1 <0>         0.1195
     28 H6          3.5227   -3.0318   -0.0408 H         1 <0>         0.1707
     29 H7          1.1635   -4.1314    0.4079 H         1 <0>         0.0764
     30 H8         -0.2259   -3.0320    0.5785 H         1 <0>         0.0770
     31 H9         -0.2802   -2.7188   -1.8806 H         1 <0>         0.0905
     32 H10         1.1092   -3.8182   -2.0513 H         1 <0>         0.0889
     33 H11        -0.9172   -5.1614   -0.6139 H         1 <0>         0.3955
     34 H12        -2.2012   -6.7262   -1.7826 H         1 <0>         0.4096
     35 H13        -3.8375   -8.1594   -2.8333 H         1 <0>         0.1411
     36 H14        -4.9088   -8.8692   -4.9578 H         1 <0>         0.1480
     37 H15        -2.5740   -5.9257   -6.9894 H         1 <0>         0.1682
@<TRIPOS>BOND
     1    1    6 ar
     2    1    2 ar
     3    1   24 1
     4    2    3 ar
     5    2   25 1
     6    3    4 ar
     7    3   26 1
     8    4    9 1
     9    4    5 ar
    10    5    6 ar
    11    5    7 1
    12    6   27 1
    13    7    8 2
    14    7   11 1
    15    8    9 1
    16    8   28 1
    17    9   10 1
    18   11   12 1
    19   11   29 1
    20   11   30 1
    21   12   13 1
    22   12   31 1
    23   12   32 1
    24   13   14 1
    25   13   33 1
    26   14   15 2
    27   14   16 1
    28   16   17 1
    29   16   34 1
    30   17   22 ar
    31   17   18 ar
    32   18   19 ar
    33   18   35 1
    34   19   20 ar
    35   19   36 1
    36   20   21 ar
    37   20   23 1
    38   21   22 ar
    39   21   37 1
@<TRIPOS>MOLECULE
CHEMBL83825
   40    42     0     0     0
SMALL
USER_CHARGES

@<TRIPOS>ATOM
      1 C1         -3.9413   -3.0939   -2.7831 C.3       1 <0>        -0.1502
      2 C2         -3.8779   -1.5939   -2.4888 C.3       1 <0>        -0.0673
      3 C3         -3.2142   -1.3714   -1.1542 C.2       1 <0>        -0.1367
      4 C4         -3.9708   -1.4399    0.0248 C.2       1 <0>        -0.0997
      5 C5         -3.3530   -1.2361    1.2279 C.2       1 <0>         0.0731
      6 C6         -1.9679   -0.9614    1.2534 C.2       1 <0>         0.5147
      7 N1         -1.2731   -0.9032    0.1012 N.am      1 <0>        -0.5927
      8 C7         -1.8886   -1.1114   -1.0938 C.2       1 <0>         0.1016
      9 C8         -1.0844   -1.0458   -2.3665 C.3       1 <0>        -0.1210
     10 O1         -1.4011   -0.7766    2.3186 O.2       1 <0>        -0.5553
     11 N2         -4.0851   -1.2984    2.4201 N.pl3     1 <0>        -0.7280
     12 C9         -5.4931   -1.7023    2.3947 C.3       1 <0>         0.3393
     13 N3         -5.5951   -3.1360    2.6781 N.am      1 <0>        -0.5908
     14 C10        -5.5596   -4.1013    1.7419 C.2       1 <0>         0.5750
     15 O2         -5.4404   -3.9252    0.5462 O.2       1 <0>        -0.4526
     16 C11        -5.6899   -5.4124    2.4121 C.ar      1 <0>        -0.1416
     17 C12        -5.7182   -6.7258    1.9715 C.ar      1 <0>        -0.0447
     18 C13        -5.8565   -7.7555    2.8890 C.ar      1 <0>        -0.0950
     19 C14        -5.9663   -7.4809    4.2393 C.ar      1 <0>        -0.0950
     20 C15        -5.9395   -6.1719    4.6946 C.ar      1 <0>        -0.0443
     21 C16        -5.8018   -5.1323    3.7889 C.ar      1 <0>        -0.1429
     22 C17        -5.7307   -3.6608    3.9093 C.2       1 <0>         0.5766
     23 O3         -5.7872   -3.0308    4.9461 O.2       1 <0>        -0.4600
     24 H1         -4.4213   -3.2548   -3.7484 H         1 <0>         0.0560
     25 H2         -2.9310   -3.5025   -2.8072 H         1 <0>         0.0514
     26 H3         -4.5167   -3.5932   -2.0035 H         1 <0>         0.0649
     27 H4         -3.3025   -1.0946   -3.2684 H         1 <0>         0.0729
     28 H5         -4.8881   -1.1853   -2.4648 H         1 <0>         0.0727
     29 H6         -5.0291   -1.6509   -0.0168 H         1 <0>         0.1368
     30 H7         -1.0847   -0.0234   -2.7442 H         1 <0>         0.0842
     31 H8         -0.0598   -1.3586   -2.1654 H         1 <0>         0.0724
     32 H9         -1.5270   -1.7081   -3.1106 H         1 <0>         0.0923
     33 H10        -0.3219   -0.7143    0.1240 H         1 <0>         0.4162
     34 H11        -3.6600   -1.0742    3.2626 H         1 <0>         0.4122
     35 H12        -6.0453   -1.1425    3.1496 H         1 <0>         0.1185
     36 H13        -5.9127   -1.4958    1.4101 H         1 <0>         0.1148
     37 H14        -5.6332   -6.9463    0.9177 H         1 <0>         0.1425
     38 H15        -5.8791   -8.7795    2.5465 H         1 <0>         0.1434
     39 H16        -6.0739   -8.2918    4.9445 H         1 <0>         0.1436
     40 H17        -6.0261   -5.9632    5.7507 H         1 <0>         0.1428
@<TRIPOS>BOND
     1    1    2 1
     2    1   24 1
     3    1   25 1
     4    1   26 1
     5    2   27 1
     6    2   28 1
     7    2    3 1
     8    3    8 2
     9    3    4 1
    10    4   29 1
    11    4    5 2
    12    5    6 1
    13    5   11 1
    14    6   10 2
    15    6    7 am
    16    7   33 1
    17    7    8 1
    18    8    9 1
    19    9   30 1
    20    9   31 1
    21    9   32 1
    22   11   12 1
    23   11   34 1
    24   12   13 1
    25   12   35 1
    26   12   36 1
    27   13   22 am
    28   13   14 am
    29   14   15 2
    30   14   16 1
    31   16   21 ar
    32   16   17 ar
    33   17   18 ar
    34   17   37 1
    35   18   19 ar
    36   18   38 1
    37   19   20 ar
    38   19   39 1
    39   20   21 ar
    40   20   40 1
    41   21   22 1
    42   22   23 2
@<TRIPOS>MOLECULE
CHEMBL101845
   55    59     0     0     0
SMALL
USER_CHARGES

@<TRIPOS>ATOM
      1 C1         -0.0187    1.5258    0.0104 C.3       1 <0>        -0.1711
      2 C2          0.0021   -0.0041    0.0020 C.3       1 <0>         0.1356
      3 N1         -1.3723   -0.5112    0.0124 N.pl3     1 <0>        -0.5778
      4 C3         -2.0241   -0.7561    1.2211 C.ar      1 <0>         0.4004
      5 C4         -3.1915   -0.0725    1.5499 C.ar      1 <0>         0.0830
      6 C5         -3.8441   -0.3868    2.7380 C.ar      1 <0>        -0.0573
      7 C6         -3.2884   -1.3493    3.5681 C.ar      1 <0>        -0.1747
      8 C7         -2.1084   -1.9648    3.1930 C.ar      1 <0>         0.3220
      9 N2         -1.5189   -1.6586    2.0514 N.ar      1 <0>        -0.5070
     10 F1         -1.5514   -2.8904    4.0043 F         1 <0>        -0.1038
     11 N3         -3.6944    0.9522    0.7499 N.am      1 <0>        -0.5365
     12 C8         -3.7337    0.9804   -0.5740 C.2       1 <0>         0.5755
     13 O1         -4.2308    1.9604   -1.0943 O.2       1 <0>        -0.5186
     14 C9         -3.2297   -0.0685   -1.4660 C.ar      1 <0>        -0.1930
     15 C10        -2.0400   -0.7469   -1.1772 C.ar      1 <0>         0.4069
     16 N4         -1.5588   -1.6321   -2.0379 N.ar      1 <0>        -0.4937
     17 C11        -2.1941   -1.9350   -3.1531 C.ar      1 <0>         0.1564
     18 C12        -3.3986   -1.3374   -3.4763 C.ar      1 <0>        -0.1488
     19 C13        -3.9315   -0.3957   -2.6313 C.ar      1 <0>         0.0001
     20 C14        -4.1221   -1.7209   -4.7414 C.3       1 <0>        -0.0684
     21 C15        -5.0723   -2.8848   -4.4527 C.3       1 <0>        -0.0776
     22 C16        -5.7958   -3.2683   -5.7179 C.ar      1 <0>        -0.0794
     23 C17        -7.0059   -2.6516   -6.0305 C.ar      1 <0>        -0.1113
     24 C18        -7.6848   -2.9751   -7.1648 C.ar      1 <0>        -0.1029
     25 C19        -7.1604   -3.9448   -8.0363 C.ar      1 <0>        -0.0549
     26 C20        -7.8324   -4.3048   -9.2170 C.ar      1 <0>        -0.1064
     27 C21        -7.2940   -5.2479  -10.0374 C.ar      1 <0>        -0.1173
     28 C22        -6.0837   -5.8644   -9.7249 C.ar      1 <0>        -0.1155
     29 C23        -5.4051   -5.5412   -8.5904 C.ar      1 <0>        -0.1077
     30 C24        -5.9297   -4.5717   -7.7187 C.ar      1 <0>        -0.0493
     31 C25        -5.2549   -4.2077   -6.5408 C.ar      1 <0>        -0.1028
     32 C26        -4.2371    2.1211    1.4466 C.3       1 <0>         0.0642
     33 H1          1.0039    1.9031    0.0027 H         1 <0>         0.0739
     34 H2         -0.5459    1.8868   -0.8726 H         1 <0>         0.0553
     35 H3         -0.5289    1.8773    0.9072 H         1 <0>         0.0544
     36 H4          0.5123   -0.3556   -0.8948 H         1 <0>         0.0861
     37 H5          0.5293   -0.3651    0.8851 H         1 <0>         0.0846
     38 H6         -4.7646    0.1089    3.0087 H         1 <0>         0.1605
     39 H7         -3.7716   -1.6145    4.4968 H         1 <0>         0.1615
     40 H8         -1.7658   -2.6627   -3.8264 H         1 <0>         0.1672
     41 H9         -4.8686    0.0868   -2.8666 H         1 <0>         0.1480
     42 H10        -4.6934   -0.8673   -5.1063 H         1 <0>         0.0819
     43 H11        -3.3971   -2.0227   -5.4973 H         1 <0>         0.0836
     44 H12        -4.5010   -3.7384   -4.0879 H         1 <0>         0.0766
     45 H13        -5.7973   -2.5830   -3.6968 H         1 <0>         0.0751
     46 H14        -7.4111   -1.9060   -5.3624 H         1 <0>         0.1230
     47 H15        -8.6219   -2.4894   -7.3937 H         1 <0>         0.1273
     48 H16        -8.7712   -3.8357   -9.4719 H         1 <0>         0.1267
     49 H17        -7.8126   -5.5229  -10.9439 H         1 <0>         0.1232
     50 H18        -5.6785   -6.6100  -10.3929 H         1 <0>         0.1233
     51 H19        -4.4684   -6.0274   -8.3610 H         1 <0>         0.1269
     52 H20        -4.3141   -4.6738   -6.2881 H         1 <0>         0.1272
     53 H21        -3.4439    2.8524    1.6016 H         1 <0>         0.0694
     54 H22        -5.0298    2.5667    0.8455 H         1 <0>         0.0955
     55 H23        -4.6416    1.8139    2.4110 H         1 <0>         0.0808
@<TRIPOS>BOND
     1    1    2 1
     2    1   33 1
     3    1   34 1
     4    1   35 1
     5    2    3 1
     6    2   36 1
     7    2   37 1
     8    3   15 1
     9    3    4 1
    10    4    9 ar
    11    4    5 ar
    12    5    6 ar
    13    5   11 1
    14    6    7 ar
    15    6   38 1
    16    7    8 ar
    17    7   39 1
    18    8    9 ar
    19    8   10 1
    20   11   12 am
    21   11   32 1
    22   12   13 2
    23   12   14 1
    24   14   19 ar
    25   14   15 ar
    26   15   16 ar
    27   16   17 ar
    28   17   18 ar
    29   17   40 1
    30   18   19 ar
    31   18   20 1
    32   19   41 1
    33   20   21 1
    34   20   42 1
    35   20   43 1
    36   21   22 1
    37   21   44 1
    38   21   45 1
    39   22   31 ar
    40   22   23 ar
    41   23   24 ar
    42   23   46 1
    43   24   25 ar
    44   24   47 1
    45   25   30 ar
    46   25   26 ar
    47   26   27 ar
    48   26   48 1
    49   27   28 ar
    50   27   49 1
    51   28   29 ar
    52   28   50 1
    53   29   30 ar
    54   29   51 1
    55   30   31 ar
    56   31   52 1
    57   32   53 1
    58   32   54 1
    59   32   55 1
@<TRIPOS>MOLECULE
CHEMBL132865
   52    54     0     0     0
SMALL
USER_CHARGES

@<TRIPOS>ATOM
      1 C1          0.0424    0.7877    0.6025 C.3       1 <0>        -0.1443
      2 C2         -0.2546   -0.6690    0.2410 C.3       1 <0>        -0.0668
      3 C3         -1.7379   -0.8445    0.0409 C.2       1 <0>        -0.1702
      4 C4         -2.5804   -1.0838    1.1371 C.2       1 <0>         0.5552
      5 O1         -2.1174   -1.1512    2.2631 O.2       1 <0>        -0.4940
      6 N1         -3.9042   -1.2382    0.9385 N.am      1 <0>        -0.6567
      7 H1         -4.4878   -1.4036    1.6955 H         1 <0>         0.4342
      8 C5         -4.4240   -1.1645   -0.3002 C.2       1 <0>         0.7014
      9 O2         -5.6214   -1.3064   -0.4565 O.2       1 <0>        -0.5183
     10 N2         -3.6387   -0.9356   -1.3688 N.am      1 <0>        -0.5394
     11 C6         -2.2829   -0.7673   -1.2115 C.2       1 <0>         0.1180
     12 S1         -1.2566   -0.4609   -2.6106 S.3       1 <0>         0.0644
     13 C7         -1.2679   -1.9877   -3.4901 C.ar      1 <0>        -0.1264
     14 C8         -1.9601   -3.0794   -2.9809 C.ar      1 <0>        -0.1227
     15 C9         -1.9669   -4.2745   -3.6727 C.ar      1 <0>        -0.0974
     16 C10        -1.2857   -4.3854   -4.8711 C.ar      1 <0>        -0.1084
     17 C11        -0.5953   -3.3008   -5.3807 C.ar      1 <0>        -0.0983
     18 C12        -0.5895   -2.1010   -4.6971 C.ar      1 <0>        -0.0860
     19 C13        -4.2320   -0.8599   -2.7062 C.3       1 <0>         0.2694
     20 O3         -4.9160    0.3861   -2.8540 O.3       1 <0>        -0.3620
     21 C14        -4.0490    1.5061   -3.0438 C.3       1 <0>         0.0567
     22 C15        -4.8760    2.7931   -3.0670 C.3       1 <0>        -0.0845
     23 C16        -5.7990    2.7843   -4.2872 C.3       1 <0>        -0.1108
     24 C17        -6.6260    4.0713   -4.3104 C.3       1 <0>        -0.1209
     25 C18        -5.6890    5.2783   -4.3884 C.3       1 <0>        -0.1211
     26 C19        -4.7661    5.2871   -3.1682 C.3       1 <0>        -0.1184
     27 C20        -3.9390    4.0001   -3.1450 C.3       1 <0>        -0.1122
     28 H2          1.1153    0.9147    0.7472 H         1 <0>         0.0685
     29 H3         -0.2948    1.4383   -0.2044 H         1 <0>         0.0535
     30 H4         -0.4816    1.0480    1.5221 H         1 <0>         0.0585
     31 H5          0.2695   -0.9292   -0.6787 H         1 <0>         0.0933
     32 H6          0.0827   -1.3196    1.0479 H         1 <0>         0.0889
     33 H7         -2.4920   -2.9935   -2.0448 H         1 <0>         0.1173
     34 H8         -2.5045   -5.1236   -3.2772 H         1 <0>         0.1302
     35 H9         -1.2926   -5.3212   -5.4102 H         1 <0>         0.1310
     36 H10        -0.0638   -3.3911   -6.3165 H         1 <0>         0.1346
     37 H11        -0.0544   -1.2529   -5.0982 H         1 <0>         0.1334
     38 H12        -3.4456   -0.9340   -3.4573 H         1 <0>         0.0995
     39 H13        -4.9382   -1.6798   -2.8374 H         1 <0>         0.1325
     40 H14        -3.3295    1.5512   -2.2263 H         1 <0>         0.0481
     41 H15        -3.5180    1.3983   -3.9896 H         1 <0>         0.0616
     42 H16        -5.4752    2.8563   -2.1587 H         1 <0>         0.0772
     43 H17        -5.1998    2.7210   -5.1956 H         1 <0>         0.0610
     44 H18        -6.4665    1.9244   -4.2317 H         1 <0>         0.0697
     45 H19        -7.2836    4.0650   -5.1798 H         1 <0>         0.0625
     46 H20        -7.2252    4.1345   -3.4021 H         1 <0>         0.0613
     47 H21        -5.0898    5.2150   -5.2967 H         1 <0>         0.0618
     48 H22        -6.2782    6.1952   -4.4049 H         1 <0>         0.0614
     49 H23        -4.0985    6.1470   -3.2237 H         1 <0>         0.0641
     50 H24        -5.3653    5.3503   -2.2598 H         1 <0>         0.0620
     51 H25        -3.2815    4.0064   -2.2756 H         1 <0>         0.0619
     52 H26        -3.3398    3.9368   -4.0533 H         1 <0>         0.0658
@<TRIPOS>BOND
     1    1    2 1
     2    1   28 1
     3    1   29 1
     4    1   30 1
     5    2    3 1
     6    2   31 1
     7    2   32 1
     8    3   11 2
     9    3    4 1
    10    4    5 2
    11    4    6 am
    12    6    7 1
    13    6    8 am
    14    8    9 2
    15    8   10 am
    16   10   11 1
    17   10   19 1
    18   11   12 1
    19   12   13 1
    20   13   18 ar
    21   13   14 ar
    22   14   15 ar
    23   14   33 1
    24   15   16 ar
    25   15   34 1
    26   16   17 ar
    27   16   35 1
    28   17   18 ar
    29   17   36 1
    30   18   37 1
    31   19   20 1
    32   19   38 1
    33   19   39 1
    34   20   21 1
    35   21   22 1
    36   21   40 1
    37   21   41 1
    38   22   27 1
    39   22   23 1
    40   22   42 1
    41   23   24 1
    42   23   43 1
    43   23   44 1
    44   24   25 1
    45   24   45 1
    46   24   46 1
    47   25   26 1
    48   25   47 1
    49   25   48 1
    50   26   27 1
    51   26   49 1
    52   26   50 1
    53   27   51 1
    54   27   52 1
@<TRIPOS>MOLECULE
CHEMBL351375
   32    35     0     0     0
SMALL
USER_CHARGES

@<TRIPOS>ATOM
      1 C1         -0.0167    1.3784    0.0096 C.ar      1 <0>        -0.0841
      2 C2          1.1671    2.0959    0.0022 C.ar      1 <0>        -0.1224
      3 C3          2.3743    1.4315   -0.0659 C.ar      1 <0>        -0.0554
      4 C4          2.4054    0.0441   -0.1000 C.ar      1 <0>        -0.1481
      5 C5          1.1971   -0.6880   -0.0007 C.ar      1 <0>        -0.0244
      6 C6          0.0021   -0.0041    0.0020 C.ar      1 <0>        -0.1115
      7 C7          1.2613   -2.1500    0.2385 C.3       1 <0>        -0.0193
      8 H1          0.2327   -2.3595    0.5320 H         1 <0>         0.1151
      9 C8          1.9768   -2.4752    1.5175 C.ar      1 <0>        -0.0865
     10 C9          1.3766   -2.8628    2.6819 C.ar      1 <0>        -0.0884
     11 C10         2.1634   -3.1397    3.7912 C.ar      1 <0>        -0.1065
     12 C11         3.5398   -3.0240    3.7157 C.ar      1 <0>        -0.1048
     13 C12         4.1485   -2.6293    2.5365 C.ar      1 <0>        -0.0985
     14 C13         3.3697   -2.3512    1.4334 C.ar      1 <0>         0.1492
     15 N1          3.8063   -1.9394    0.2072 N.am      1 <0>        -0.6065
     16 C14         3.6605   -0.6986   -0.3162 C.2       1 <0>         0.5905
     17 O1          4.5613   -0.1992   -0.9621 O.2       1 <0>        -0.4807
     18 C15         4.2674   -2.8727   -0.8213 C.3       1 <0>         0.1138
     19 C16         3.1618   -3.5886   -1.5180 C.3       1 <0>        -0.1621
     20 S1          1.4919   -3.3008   -1.0663 S.3       1 <0>        -0.1241
     21 H2         -0.9611    1.9020    0.0260 H         1 <0>         0.1342
     22 H3          1.1456    3.1747    0.0492 H         1 <0>         0.1352
     23 H4          3.2971    1.9920   -0.0931 H         1 <0>         0.1334
     24 H5         -0.9285   -0.5522   -0.0022 H         1 <0>         0.1325
     25 H6          0.3018   -2.9524    2.7387 H         1 <0>         0.1316
     26 H7          1.6993   -3.4463    4.7169 H         1 <0>         0.1328
     27 H8          4.1442   -3.2429    4.5835 H         1 <0>         0.1331
     28 H9          5.2234   -2.5399    2.4814 H         1 <0>         0.1307
     29 H10         4.8446   -2.3184   -1.5614 H         1 <0>         0.1040
     30 H11         4.9208   -3.6101   -0.3551 H         1 <0>         0.0872
     31 H12         3.2544   -3.3662   -2.5810 H         1 <0>         0.0982
     32 H13         3.3484   -4.6564   -1.4042 H         1 <0>         0.1018
@<TRIPOS>BOND
     1    1    6 ar
     2    1    2 ar
     3    1   21 1
     4    2    3 ar
     5    2   22 1
     6    3    4 ar
     7    3   23 1
     8    4   16 1
     9    4    5 ar
    10    5    6 ar
    11    5    7 1
    12    6   24 1
    13    7    8 1
    14    7   20 1
    15    7    9 1
    16    9   14 ar
    17    9   10 ar
    18   10   11 ar
    19   10   25 1
    20   11   12 ar
    21   11   26 1
    22   12   13 ar
    23   12   27 1
    24   13   14 ar
    25   13   28 1
    26   14   15 1
    27   15   16 am
    28   15   18 1
    29   16   17 2
    30   18   19 1
    31   18   29 1
    32   18   30 1
    33   19   20 1
    34   19   31 1
    35   19   32 1
@<TRIPOS>MOLECULE
CHEMBL338047
   48    49     0     0     0
SMALL
USER_CHARGES

@<TRIPOS>ATOM
      1 C1          0.4441    1.7631   -0.7332 C.3       1 <0>        -0.1512
      2 C2          0.7459    0.2723   -0.5680 C.3       1 <0>        -0.0805
      3 C3          1.1071   -0.3185   -1.9065 C.2       1 <0>        -0.1681
      4 C4          2.4055   -0.4311   -2.2670 C.2       1 <0>         0.1440
      5 N1          2.7509   -0.9621   -3.4707 N.am      1 <0>        -0.6045
      6 H1          3.6877   -1.0349   -3.7114 H         1 <0>         0.4118
      7 C5          1.8074   -1.3883   -4.3320 C.2       1 <0>         0.5082
      8 O1          2.1324   -1.8630   -5.4086 O.2       1 <0>        -0.5453
      9 C6          0.4414   -1.2859   -3.9881 C.2       1 <0>         0.0580
     10 C7          0.0967   -0.7565   -2.7750 C.2       1 <0>         0.0023
     11 C8         -1.3525   -0.6403   -2.3783 C.3       1 <0>        -0.0501
     12 C9         -1.7732   -1.8860   -1.6419 C.ar      1 <0>        -0.0625
     13 C10        -2.1860   -3.0003   -2.3482 C.ar      1 <0>        -0.1205
     14 C11        -2.5719   -4.1430   -1.6727 C.ar      1 <0>        -0.0815
     15 C12        -2.5445   -4.1716   -0.2910 C.ar      1 <0>        -0.1242
     16 C13        -2.1308   -3.0576    0.4154 C.ar      1 <0>        -0.0808
     17 C14        -1.7408   -1.9164   -0.2602 C.ar      1 <0>        -0.1256
     18 C15        -2.1013   -3.0887    1.9217 C.3       1 <0>        -0.1153
     19 C16        -3.0229   -5.3574   -2.4427 C.3       1 <0>        -0.1158
     20 N2         -0.5479   -1.7255   -4.8764 N.pl3     1 <0>        -0.6469
     21 C17        -1.4641   -0.7601   -5.4886 C.3       1 <0>         0.1092
     22 C18        -0.6666   -3.1509   -5.1935 C.3       1 <0>         0.1056
     23 C19         3.4831    0.0380   -1.3238 C.3       1 <0>        -0.1272
     24 H2          1.3242    2.2703   -1.1286 H         1 <0>         0.0553
     25 H3         -0.3896    1.8907   -1.4237 H         1 <0>         0.0564
     26 H4          0.1828    2.1904    0.2349 H         1 <0>         0.0594
     27 H5          1.5796    0.1447    0.1225 H         1 <0>         0.0747
     28 H6         -0.1342   -0.2349   -0.1726 H         1 <0>         0.0823
     29 H7         -1.4835    0.2264   -1.7304 H         1 <0>         0.0859
     30 H8         -1.9655   -0.5220   -3.2718 H         1 <0>         0.0925
     31 H9         -2.2075   -2.9779   -3.4278 H         1 <0>         0.1305
     32 H10        -2.8466   -5.0641    0.2368 H         1 <0>         0.1190
     33 H11        -1.4140   -1.0474    0.2915 H         1 <0>         0.1241
     34 H12        -1.1259   -3.4393    2.2589 H         1 <0>         0.0698
     35 H13        -2.2808   -2.0859    2.3094 H         1 <0>         0.0661
     36 H14        -2.8759   -3.7633    2.2865 H         1 <0>         0.0658
     37 H15        -2.1632   -5.9929   -2.6550 H         1 <0>         0.0699
     38 H16        -3.7490   -5.9142   -1.8504 H         1 <0>         0.0660
     39 H17        -3.4828   -5.0433   -3.3797 H         1 <0>         0.0658
     40 H18        -1.0728   -0.4522   -6.4582 H         1 <0>         0.0373
     41 H19        -2.4425   -1.2217   -5.6217 H         1 <0>         0.0598
     42 H20        -1.5587    0.1118   -4.8414 H         1 <0>         0.0599
     43 H21        -0.8654   -3.7110   -4.2798 H         1 <0>         0.0470
     44 H22        -1.4863   -3.2997   -5.8964 H         1 <0>         0.0654
     45 H23         0.2634   -3.5024   -5.6402 H         1 <0>         0.0497
     46 H24         3.7794   -0.7845   -0.6728 H         1 <0>         0.0879
     47 H25         4.3460    0.3763   -1.8974 H         1 <0>         0.0757
     48 H26         3.1034    0.8614   -0.7189 H         1 <0>         0.0945
@<TRIPOS>BOND
     1    1    2 1
     2    1   24 1
     3    1   25 1
     4    1   26 1
     5    2    3 1
     6    2   27 1
     7    2   28 1
     8    3   10 1
     9    3    4 2
    10    4    5 1
    11    4   23 1
    12    5    6 1
    13    5    7 am
    14    7    8 2
    15    7    9 1
    16    9   10 2
    17    9   20 1
    18   10   11 1
    19   11   12 1
    20   11   29 1
    21   11   30 1
    22   12   17 ar
    23   12   13 ar
    24   13   14 ar
    25   13   31 1
    26   14   15 ar
    27   14   19 1
    28   15   16 ar
    29   15   32 1
    30   16   17 ar
    31   16   18 1
    32   17   33 1
    33   18   34 1
    34   18   35 1
    35   18   36 1
    36   19   37 1
    37   19   38 1
    38   19   39 1
    39   20   21 1
    40   20   22 1
    41   21   40 1
    42   21   41 1
    43   21   42 1
    44   22   43 1
    45   22   44 1
    46   22   45 1
    47   23   46 1
    48   23   47 1
    49   23   48 1
@<TRIPOS>MOLECULE
CHEMBL335584
   40    42     0     0     0
SMALL
USER_CHARGES

@<TRIPOS>ATOM
      1 C1         -1.5518    2.2875   -0.8690 C.3       1 <0>        -0.1506
      2 C2         -1.2452    0.8219   -0.5548 C.3       1 <0>         0.0427
      3 O1         -0.0886    0.4099   -1.2859 O.3       1 <0>        -0.3451
      4 C3          0.3540   -0.9131   -0.9762 C.3       1 <0>         0.2594
      5 N1         -0.5006   -1.8866   -1.6605 N.pl3     1 <0>        -0.4864
      6 C4         -1.4234   -2.6100   -0.9427 C.2       1 <0>         0.1019
      7 C5         -2.2169   -3.5168   -1.5909 C.2       1 <0>        -0.1192
      8 C6         -2.0677   -3.6854   -2.9761 C.2       1 <0>         0.5392
      9 O2         -2.7641   -4.4874   -3.5748 O.2       1 <0>        -0.4724
     10 N2         -1.1506   -2.9554   -3.6408 N.am      1 <0>        -0.6079
     11 H1         -1.0463   -3.0708   -4.5982 H         1 <0>         0.4457
     12 C7         -0.3819   -2.0639   -2.9892 C.2       1 <0>         0.5184
     13 S1          0.7696   -1.1462   -3.8626 S.2       1 <0>        -0.5037
     14 C8         -3.2361   -4.3234   -0.8282 C.3       1 <0>        -0.1078
     15 C9         -2.7641   -5.0443    0.4361 C.3       1 <0>        -0.1517
     16 C10        -3.0773   -5.8451   -0.8293 C.3       1 <0>        -0.1534
     17 S2         -1.5822   -2.3721    0.7959 S.3       1 <0>         0.0818
     18 C11        -0.0836   -3.0245    1.4542 C.ar      1 <0>        -0.1309
     19 C12         0.8646   -3.5826    0.6059 C.ar      1 <0>        -0.1255
     20 C13         2.0379   -4.0931    1.1251 C.ar      1 <0>        -0.0947
     21 C14         2.2697   -4.0491    2.4878 C.ar      1 <0>        -0.1060
     22 C15         1.3278   -3.4947    3.3351 C.ar      1 <0>        -0.0963
     23 C16         0.1549   -2.9769    2.8220 C.ar      1 <0>        -0.0838
     24 H2         -0.7014    2.9062   -0.5824 H         1 <0>         0.0683
     25 H3         -1.7384    2.3988   -1.9371 H         1 <0>         0.0650
     26 H4         -2.4340    2.6018   -0.3114 H         1 <0>         0.0747
     27 H5         -1.0586    0.7106    0.5133 H         1 <0>         0.0617
     28 H6         -2.0956    0.2032   -0.8414 H         1 <0>         0.0450
     29 H7          1.3848   -1.0383   -1.3076 H         1 <0>         0.1473
     30 H8          0.2965   -1.0728    0.1005 H         1 <0>         0.1037
     31 H9         -4.2500   -3.9232   -0.8309 H         1 <0>         0.1312
     32 H10        -1.7164   -4.9351    0.7162 H         1 <0>         0.0940
     33 H11        -3.4674   -5.1183    1.2656 H         1 <0>         0.1093
     34 H12        -3.9867   -6.4460   -0.8325 H         1 <0>         0.1055
     35 H13        -2.2356   -6.2629   -1.3818 H         1 <0>         0.0927
     36 H14         0.6840   -3.6175   -0.4583 H         1 <0>         0.1134
     37 H15         2.7753   -4.5274    0.4663 H         1 <0>         0.1314
     38 H16         3.1882   -4.4491    2.8912 H         1 <0>         0.1324
     39 H17         1.5116   -3.4626    4.3989 H         1 <0>         0.1360
     40 H18        -0.5780   -2.5393    3.4837 H         1 <0>         0.1345
@<TRIPOS>BOND
     1    1    2 1
     2    1   24 1
     3    1   25 1
     4    1   26 1
     5    2    3 1
     6    2   27 1
     7    2   28 1
     8    3    4 1
     9    4    5 1
    10    4   29 1
    11    4   30 1
    12    5   12 1
    13    5    6 1
    14    6    7 2
    15    6   17 1
    16    7    8 1
    17    7   14 1
    18    8    9 2
    19    8   10 am
    20   10   11 1
    21   10   12 1
    22   12   13 2
    23   14   16 1
    24   14   15 1
    25   14   31 1
    26   15   16 1
    27   15   32 1
    28   15   33 1
    29   16   34 1
    30   16   35 1
    31   17   18 1
    32   18   23 ar
    33   18   19 ar
    34   19   20 ar
    35   19   36 1
    36   20   21 ar
    37   20   37 1
    38   21   22 ar
    39   21   38 1
    40   22   23 ar
    41   22   39 1
    42   23   40 1
@<TRIPOS>MOLECULE
CHEMBL433489
   36    38     0     0     0
SMALL
USER_CHARGES

@<TRIPOS>ATOM
      1 C1         -0.0184    1.5022    0.0103 C.3       1 <0>        -0.1153
      2 C2          0.0021   -0.0041    0.0020 C.ar      1 <0>        -0.0664
      3 C3          0.0126   -0.6942   -1.1924 C.ar      1 <0>        -0.1117
      4 C4          0.0247   -2.0814   -1.2053 C.ar      1 <0>        -0.0681
      5 C5         -0.0140   -2.7959   -0.0243 C.ar      1 <0>         0.1132
      6 C6          0.0237   -2.0874    1.1846 C.ar      1 <0>         0.0839
      7 C7          0.0229   -0.7042    1.1935 C.ar      1 <0>        -0.1184
      8 O1          0.0945   -2.7570    2.3647 O.3       1 <0>        -0.2609
      9 C8          1.2338   -3.4462    2.6201 C.ar      1 <0>         0.0666
     10 C9          2.0660   -3.0509    3.6562 C.ar      1 <0>        -0.0799
     11 C10         3.2300   -3.7464    3.9152 C.ar      1 <0>        -0.1541
     12 C11         3.5765   -4.8473    3.1393 C.ar      1 <0>         0.2081
     13 C12         2.7536   -5.2539    2.1026 C.ar      1 <0>        -0.1233
     14 C13         1.5728   -4.5560    1.8374 C.ar      1 <0>        -0.1131
     15 C14         0.6860   -4.9892    0.7489 C.2       1 <0>         0.5690
     16 O2          0.6636   -6.1731    0.4762 O.2       1 <0>        -0.5192
     17 N1         -0.0924   -4.1810    0.0420 N.am      1 <0>        -0.5498
     18 C15        -1.2056   -4.8463   -0.6483 C.3       1 <0>         0.0734
     19 N2          4.7591   -5.5463    3.4068 N.pl3     1 <0>        -0.8735
     20 C16         0.1366   -2.7571   -2.5509 C.3       1 <0>        -0.1219
     21 H1          1.0042    1.8795    0.0026 H         1 <0>         0.0754
     22 H2         -0.5455    1.8633   -0.8728 H         1 <0>         0.0715
     23 H3         -0.5285    1.8537    0.9071 H         1 <0>         0.0709
     24 H4          0.0110   -0.1562   -2.1293 H         1 <0>         0.1345
     25 H5          0.0389   -0.1672    2.1310 H         1 <0>         0.1380
     26 H6          1.8041   -2.1964    4.2628 H         1 <0>         0.1402
     27 H7          3.8743   -3.4337    4.7237 H         1 <0>         0.1358
     28 H8          3.0258   -6.1089    1.5016 H         1 <0>         0.1381
     29 H9         -0.9095   -5.0839   -1.6701 H         1 <0>         0.0695
     30 H10        -1.4626   -5.7653   -0.1215 H         1 <0>         0.0866
     31 H11        -2.0707   -4.1833   -0.6656 H         1 <0>         0.0746
     32 H12         5.3364   -5.2628    4.1329 H         1 <0>         0.4022
     33 H13         5.0015   -6.3143    2.8661 H         1 <0>         0.4021
     34 H14         1.1880   -2.9115   -2.7935 H         1 <0>         0.0752
     35 H15        -0.3738   -3.7197   -2.5177 H         1 <0>         0.0725
     36 H16        -0.3235   -2.1280   -3.3128 H         1 <0>         0.0742
@<TRIPOS>BOND
     1    1    2 1
     2    1   21 1
     3    1   22 1
     4    1   23 1
     5    2    7 ar
     6    2    3 ar
     7    3    4 ar
     8    3   24 1
     9    4    5 ar
    10    4   20 1
    11    5   17 1
    12    5    6 ar
    13    6    7 ar
    14    6    8 1
    15    7   25 1
    16    8    9 1
    17    9   14 ar
    18    9   10 ar
    19   10   11 ar
    20   10   26 1
    21   11   12 ar
    22   11   27 1
    23   12   13 ar
    24   12   19 1
    25   13   14 ar
    26   13   28 1
    27   14   15 1
    28   15   16 2
    29   15   17 am
    30   17   18 1
    31   18   29 1
    32   18   30 1
    33   18   31 1
    34   19   32 1
    35   19   33 1
    36   20   34 1
    37   20   35 1
    38   20   36 1
@<TRIPOS>MOLECULE
CHEMBL356779
   40    43     0     0     0
SMALL
USER_CHARGES

@<TRIPOS>ATOM
      1 C1         -0.0187    1.5258    0.0104 C.3       1 <0>        -0.1717
      2 C2          0.0021   -0.0041    0.0020 C.3       1 <0>         0.1381
      3 N1         -1.3723   -0.5112    0.0124 N.pl3     1 <0>        -0.5782
      4 C3         -2.0201   -0.7546    1.2116 C.ar      1 <0>         0.4152
      5 C4         -3.2167   -0.0811    1.5070 C.ar      1 <0>        -0.2009
      6 C5         -3.8976   -0.4038    2.6861 C.ar      1 <0>        -0.0005
      7 C6         -3.3376   -1.3440    3.5339 C.ar      1 <0>        -0.1907
      8 C7         -2.1321   -1.9315    3.1964 C.ar      1 <0>         0.1505
      9 N2         -1.5174   -1.6297    2.0693 N.ar      1 <0>        -0.5005
     10 C8         -3.7312    0.9714    0.6269 C.2       1 <0>         0.5767
     11 O1         -4.2314    1.9432    1.1595 O.2       1 <0>        -0.5224
     12 N3         -3.6995    0.9586   -0.6975 N.am      1 <0>        -0.5376
     13 C9         -3.2066   -0.0589   -1.5094 C.ar      1 <0>         0.1005
     14 C10        -2.0454   -0.7488   -1.1848 C.ar      1 <0>         0.3678
     15 N4         -1.5636   -1.6629   -2.0138 N.ar      1 <0>        -0.4772
     16 C11        -2.1817   -1.9775   -3.1474 C.ar      1 <0>         0.2127
     17 C12        -3.3721   -1.3488   -3.5051 C.ar      1 <0>        -0.1084
     18 C13        -3.8883   -0.3832   -2.6797 C.ar      1 <0>        -0.0799
     19 C14        -1.6006   -3.0048   -4.0370 C.2       1 <0>         0.2404
     20 N5         -0.4492   -3.7010   -3.8087 N.pl3     1 <0>        -0.5457
     21 H1          0.1346   -3.6141   -3.0389 H         1 <0>         0.4283
     22 C15        -0.2748   -4.5452   -4.8712 C.2       1 <0>        -0.0332
     23 C16        -1.3122   -4.3444   -5.7101 C.2       1 <0>        -0.0228
     24 N6         -2.1076   -3.4085   -5.1811 N.2       1 <0>        -0.4614
     25 C17        -4.2389    2.1383   -1.3783 C.3       1 <0>         0.0572
     26 H2          1.0039    1.9031    0.0027 H         1 <0>         0.0726
     27 H3         -0.5459    1.8868   -0.8726 H         1 <0>         0.0547
     28 H4         -0.5289    1.8773    0.9072 H         1 <0>         0.0550
     29 H5          0.5123   -0.3556   -0.8948 H         1 <0>         0.0815
     30 H6          0.5293   -0.3651    0.8851 H         1 <0>         0.0844
     31 H7         -4.8374    0.0696    2.9291 H         1 <0>         0.1488
     32 H8         -3.8383   -1.6167    4.4512 H         1 <0>         0.1494
     33 H9         -1.6859   -2.6500    3.8679 H         1 <0>         0.1681
     34 H10        -3.8811   -1.6198   -4.4183 H         1 <0>         0.1613
     35 H11        -4.8079    0.1205   -2.9385 H         1 <0>         0.1540
     36 H12         0.5396   -5.2404   -5.0120 H         1 <0>         0.1842
     37 H13        -1.4748   -4.8556   -6.6475 H         1 <0>         0.1783
     38 H14        -4.5898    2.8566   -0.6374 H         1 <0>         0.1070
     39 H15        -3.4584    2.5955   -1.9864 H         1 <0>         0.0712
     40 H16        -5.0700    1.8405   -2.0177 H         1 <0>         0.0729
@<TRIPOS>BOND
     1    1    2 1
     2    1   26 1
     3    1   27 1
     4    1   28 1
     5    2    3 1
     6    2   29 1
     7    2   30 1
     8    3   14 1
     9    3    4 1
    10    4    9 ar
    11    4    5 ar
    12    5    6 ar
    13    5   10 1
    14    6    7 ar
    15    6   31 1
    16    7    8 ar
    17    7   32 1
    18    8    9 ar
    19    8   33 1
    20   10   11 2
    21   10   12 am
    22   12   13 1
    23   12   25 1
    24   13   18 ar
    25   13   14 ar
    26   14   15 ar
    27   15   16 ar
    28   16   17 ar
    29   16   19 1
    30   17   18 ar
    31   17   34 1
    32   18   35 1
    33   19   24 2
    34   19   20 1
    35   20   21 1
    36   20   22 1
    37   22   23 2
    38   22   36 1
    39   23   24 1
    40   23   37 1
    41   25   38 1
    42   25   39 1
    43   25   40 1
@<TRIPOS>MOLECULE
CHEMBL435017
   53    56     0     0     0
SMALL
USER_CHARGES

@<TRIPOS>ATOM
      1 C1         -0.0184    1.5028    0.0103 C.3       1 <0>        -0.0748
      2 C2          0.0021   -0.0041    0.0020 C.2       1 <0>         0.0805
      3 C3          0.0081   -0.8158   -1.1154 C.2       1 <0>        -0.0889
      4 C4         -0.0007   -0.5737   -2.5018 C.2       1 <0>         0.0407
      5 C5          0.0104   -1.6313   -3.3562 C.2       1 <0>        -0.2107
      6 C6          0.0300   -2.9464   -2.8523 C.2       1 <0>         0.4198
      7 N1          0.0378   -3.1772   -1.5632 N.2       1 <0>        -0.2938
      8 N2          0.0278   -2.1176   -0.6506 N.pl3     1 <0>        -0.2574
      9 C7          0.0330   -2.0543    0.6933 C.2       1 <0>         0.2578
     10 N3          0.0235   -0.7987    1.0712 N.2       1 <0>        -0.4526
     11 C8          0.0533   -3.2421    1.6205 C.3       1 <0>        -0.0362
     12 C9          1.5026   -3.6245    1.9277 C.3       1 <0>        -0.1117
     13 C10         1.5232   -4.8305    2.8691 C.3       1 <0>        -0.1180
     14 C11         2.9725   -5.2128    3.1764 C.3       1 <0>        -0.1193
     15 C12         2.9931   -6.4188    4.1177 C.3       1 <0>        -0.1115
     16 C13         4.4423   -6.8012    4.4250 C.3       1 <0>        -0.1668
     17 C14         4.4627   -7.9890    5.3522 C.2       1 <0>         0.3952
     18 O1          3.4209   -8.4812    5.7299 O.2       1 <0>        -0.4502
     19 C15         5.7470   -8.5517    5.7992 C.ar      1 <0>        -0.1734
     20 C16         6.9507   -7.9832    5.3703 C.ar      1 <0>        -0.0738
     21 C17         8.1499   -8.5159    5.7939 C.ar      1 <0>        -0.1335
     22 C18         8.1644   -9.6101    6.6413 C.ar      1 <0>        -0.0879
     23 C19         6.9774  -10.1786    7.0697 C.ar      1 <0>        -0.1324
     24 C20         5.7700   -9.6539    6.6596 C.ar      1 <0>        -0.0626
     25 N4          0.0408   -4.0249   -3.7443 N.pl3     1 <0>        -0.3279
     26 C21         0.0542   -5.3500   -3.4252 C.2       1 <0>         0.0527
     27 C22         0.0602   -6.0313   -4.5902 C.2       1 <0>        -0.0661
     28 N5          0.0507   -5.1623   -5.6019 N.2       1 <0>        -0.2076
     29 N6          0.0338   -3.9581   -5.1459 N.2       1 <0>        -0.0376
     30 H1          1.0042    1.8801    0.0026 H         1 <0>         0.0806
     31 H2         -0.5455    1.8639   -0.8728 H         1 <0>         0.0766
     32 H3         -0.5286    1.8543    0.9071 H         1 <0>         0.0823
     33 H4         -0.0165    0.4373   -2.8814 H         1 <0>         0.1692
     34 H5          0.0039   -1.4627   -4.4229 H         1 <0>         0.1646
     35 H6         -0.4598   -2.9879    2.5479 H         1 <0>         0.1021
     36 H7         -0.4512   -4.0831    1.1447 H         1 <0>         0.0871
     37 H8          2.0157   -3.8787    1.0003 H         1 <0>         0.0606
     38 H9          2.0072   -2.7836    2.4035 H         1 <0>         0.0710
     39 H10         1.0101   -4.5763    3.7965 H         1 <0>         0.0682
     40 H11         1.0186   -5.6714    2.3934 H         1 <0>         0.0651
     41 H12         3.4856   -5.4670    2.2489 H         1 <0>         0.0620
     42 H13         3.4770   -4.3719    3.6521 H         1 <0>         0.0644
     43 H14         2.4799   -6.1646    5.0451 H         1 <0>         0.0698
     44 H15         2.4885   -7.2597    3.6420 H         1 <0>         0.0688
     45 H16         4.9555   -7.0553    3.4976 H         1 <0>         0.0991
     46 H17         4.9469   -5.9602    4.9007 H         1 <0>         0.0998
     47 H18         6.9409   -7.1296    4.7088 H         1 <0>         0.1321
     48 H19         9.0803   -8.0783    5.4634 H         1 <0>         0.1299
     49 H20         9.1069  -10.0228    6.9696 H         1 <0>         0.1282
     50 H21         6.9969  -11.0326    7.7306 H         1 <0>         0.1298
     51 H22         4.8446  -10.0958    6.9983 H         1 <0>         0.1333
     52 H23         0.0592   -5.7732   -2.4316 H         1 <0>         0.2035
     53 H24         0.0711   -7.1068   -4.6876 H         1 <0>         0.2000
@<TRIPOS>BOND
     1    1    2 1
     2    1   30 1
     3    1   31 1
     4    1   32 1
     5    2   10 1
     6    2    3 2
     7    3    8 1
     8    3    4 1
     9    4    5 2
    10    4   33 1
    11    5    6 1
    12    5   34 1
    13    6    7 2
    14    6   25 1
    15    7    8 1
    16    8    9 1
    17    9   10 2
    18    9   11 1
    19   11   12 1
    20   11   35 1
    21   11   36 1
    22   12   13 1
    23   12   37 1
    24   12   38 1
    25   13   14 1
    26   13   39 1
    27   13   40 1
    28   14   15 1
    29   14   41 1
    30   14   42 1
    31   15   16 1
    32   15   43 1
    33   15   44 1
    34   16   17 1
    35   16   45 1
    36   16   46 1
    37   17   18 2
    38   17   19 1
    39   19   24 ar
    40   19   20 ar
    41   20   21 ar
    42   20   47 1
    43   21   22 ar
    44   21   48 1
    45   22   23 ar
    46   22   49 1
    47   23   24 ar
    48   23   50 1
    49   24   51 1
    50   25   29 1
    51   25   26 1
    52   26   27 2
    53   26   52 1
    54   27   28 1
    55   27   53 1
    56   28   29 2
@<TRIPOS>MOLECULE
CHEMBL125532
   53    56     0     0     0
SMALL
USER_CHARGES

@<TRIPOS>ATOM
      1 C1         -0.0184    1.5028    0.0103 C.3       1 <0>        -0.0743
      2 C2          0.0021   -0.0041    0.0020 C.2       1 <0>         0.0787
      3 C3          0.0081   -0.8158   -1.1154 C.2       1 <0>        -0.0885
      4 C4         -0.0010   -0.5736   -2.5018 C.2       1 <0>         0.0373
      5 C5          0.0099   -1.6311   -3.3563 C.2       1 <0>        -0.2089
      6 C6          0.0299   -2.9464   -2.8525 C.2       1 <0>         0.4268
      7 N1          0.0380   -3.1772   -1.5632 N.2       1 <0>        -0.3009
      8 N2          0.0278   -2.1176   -0.6507 N.pl3     1 <0>        -0.2562
      9 C7          0.0330   -2.0543    0.6932 C.2       1 <0>         0.2573
     10 N3          0.0235   -0.7987    1.0712 N.2       1 <0>        -0.4534
     11 C8          0.0533   -3.2422    1.6204 C.3       1 <0>        -0.0361
     12 C9          1.5025   -3.6246    1.9276 C.3       1 <0>        -0.1117
     13 C10         1.5231   -4.8306    2.8689 C.3       1 <0>        -0.1182
     14 C11         2.9724   -5.2130    3.1762 C.3       1 <0>        -0.1193
     15 C12         2.9930   -6.4190    4.1175 C.3       1 <0>        -0.1116
     16 C13         4.4422   -6.8014    4.4248 C.3       1 <0>        -0.1668
     17 C14         4.4625   -7.9893    5.3519 C.2       1 <0>         0.3951
     18 O1          3.4207   -8.4814    5.7296 O.2       1 <0>        -0.4500
     19 C15         5.7468   -8.5520    5.7989 C.ar      1 <0>        -0.1732
     20 C16         6.9505   -7.9836    5.3701 C.ar      1 <0>        -0.0738
     21 C17         8.1497   -8.5163    5.7937 C.ar      1 <0>        -0.1335
     22 C18         8.1642   -9.6106    6.6410 C.ar      1 <0>        -0.0880
     23 C19         6.9772  -10.1790    7.0694 C.ar      1 <0>        -0.1325
     24 C20         5.7698   -9.6543    6.6593 C.ar      1 <0>        -0.0626
     25 N4          0.0409   -4.0243   -3.7441 N.pl3     1 <0>        -0.3373
     26 C21         0.0546   -5.3346   -3.4281 C.2       1 <0>         0.2979
     27 N5          0.0607   -6.0196   -4.5426 N.2       1 <0>        -0.5277
     28 C22         0.0512   -5.1886   -5.5847 C.2       1 <0>         0.2272
     29 N6          0.0336   -3.9570   -5.1470 N.2       1 <0>        -0.2989
     30 H1          1.0042    1.8801    0.0026 H         1 <0>         0.0800
     31 H2         -0.5455    1.8639   -0.8728 H         1 <0>         0.0759
     32 H3         -0.5286    1.8543    0.9071 H         1 <0>         0.0819
     33 H4         -0.0167    0.4374   -2.8814 H         1 <0>         0.1671
     34 H5          0.0027   -1.4624   -4.4230 H         1 <0>         0.1626
     35 H6         -0.4598   -2.9880    2.5478 H         1 <0>         0.1017
     36 H7         -0.4513   -4.0831    1.1446 H         1 <0>         0.0875
     37 H8          2.0157   -3.8788    1.0002 H         1 <0>         0.0610
     38 H9          2.0071   -2.7837    2.4034 H         1 <0>         0.0706
     39 H10         1.0100   -4.5764    3.7964 H         1 <0>         0.0680
     40 H11         1.0185   -5.6715    2.3932 H         1 <0>         0.0655
     41 H12         3.4855   -5.4672    2.2487 H         1 <0>         0.0621
     42 H13         3.4770   -4.3721    3.6520 H         1 <0>         0.0641
     43 H14         2.4798   -6.1648    5.0449 H         1 <0>         0.0697
     44 H15         2.4884   -7.2599    3.6417 H         1 <0>         0.0690
     45 H16         4.9554   -7.0556    3.4973 H         1 <0>         0.0991
     46 H17         4.9468   -5.9605    4.9005 H         1 <0>         0.0997
     47 H18         6.9408   -7.1299    4.7086 H         1 <0>         0.1321
     48 H19         9.0801   -8.0787    5.4631 H         1 <0>         0.1298
     49 H20         9.1066  -10.0233    6.9693 H         1 <0>         0.1281
     50 H21         6.9967  -11.0330    7.7302 H         1 <0>         0.1298
     51 H22         4.8444  -10.0962    6.9980 H         1 <0>         0.1333
     52 H23         0.0601   -5.7467   -2.4299 H         1 <0>         0.2307
     53 H24         0.0533   -5.4850   -6.6232 H         1 <0>         0.2338
@<TRIPOS>BOND
     1    1    2 1
     2    1   30 1
     3    1   31 1
     4    1   32 1
     5    2   10 1
     6    2    3 2
     7    3    8 1
     8    3    4 1
     9    4    5 2
    10    4   33 1
    11    5    6 1
    12    5   34 1
    13    6    7 2
    14    6   25 1
    15    7    8 1
    16    8    9 1
    17    9   10 2
    18    9   11 1
    19   11   12 1
    20   11   35 1
    21   11   36 1
    22   12   13 1
    23   12   37 1
    24   12   38 1
    25   13   14 1
    26   13   39 1
    27   13   40 1
    28   14   15 1
    29   14   41 1
    30   14   42 1
    31   15   16 1
    32   15   43 1
    33   15   44 1
    34   16   17 1
    35   16   45 1
    36   16   46 1
    37   17   18 2
    38   17   19 1
    39   19   24 ar
    40   19   20 ar
    41   20   21 ar
    42   20   47 1
    43   21   22 ar
    44   21   48 1
    45   22   23 ar
    46   22   49 1
    47   23   24 ar
    48   23   50 1
    49   24   51 1
    50   25   29 1
    51   25   26 1
    52   26   27 2
    53   26   52 1
    54   27   28 1
    55   28   29 2
    56   28   53 1
@<TRIPOS>MOLECULE
CHEMBL440706
   55    58     0     0     0
SMALL
USER_CHARGES

@<TRIPOS>ATOM
      1 C1         -1.2552    2.4733    0.3292 C.3       1 <0>        -0.1485
      2 C2         -0.6072    1.0984    0.1541 C.3       1 <0>        -0.0429
      3 C3         -1.6727    0.0332    0.1859 C.ar      1 <0>        -0.2882
      4 C4         -1.9666   -0.6376    1.3586 C.ar      1 <0>         0.1823
      5 N1         -2.9083   -1.5684    1.3535 N.ar      1 <0>        -0.5754
      6 C5         -3.5685   -1.8622    0.2422 C.ar      1 <0>         0.3217
      7 N2         -3.3150   -1.2417   -0.9010 N.ar      1 <0>        -0.6170
      8 C6         -2.3879   -0.2939   -0.9652 C.ar      1 <0>         0.4506
      9 O1         -2.1362    0.3430   -2.1346 O.3       1 <0>        -0.6952
     10 S1         -4.8131   -3.1087    0.2859 S.3       1 <0>        -0.0028
     11 C7         -5.4325   -3.1704   -1.4179 C.3       1 <0>        -0.1601
     12 C8         -6.5174   -4.2113   -1.5207 C.2       1 <0>         0.4194
     13 O2         -6.8409   -4.8489   -0.5408 O.2       1 <0>        -0.4426
     14 C9         -7.1830   -4.4538   -2.8071 C.ar      1 <0>        -0.1990
     15 C10        -6.8074   -3.7231   -3.9412 C.ar      1 <0>        -0.0267
     16 C11        -7.4316   -3.9536   -5.1401 C.ar      1 <0>        -0.1632
     17 C12        -8.4365   -4.9108   -5.2309 C.ar      1 <0>         0.1573
     18 C13        -8.8136   -5.6389   -4.1075 C.ar      1 <0>        -0.2251
     19 C14        -8.1914   -5.4205   -2.9053 C.ar      1 <0>        -0.0171
     20 O3         -9.0513   -5.1348   -6.4193 O.3       1 <0>        -0.3131
     21 C15       -10.0748   -6.1318   -6.4425 C.3       1 <0>         0.0247
     22 C16        -1.2230   -0.3133    2.6286 C.3       1 <0>        -0.0314
     23 C17        -2.0181    0.6797    3.4365 C.ar      1 <0>        -0.0440
     24 C18        -1.7216    2.0068    3.3733 C.ar      1 <0>        -0.1241
     25 C19        -2.4455    2.9396    4.1130 C.ar      1 <0>        -0.1115
     26 C20        -3.4699    2.5509    4.9208 C.ar      1 <0>        -0.1206
     27 C21        -3.8052    1.1896    5.0120 C.ar      1 <0>        -0.0505
     28 C22        -3.0728    0.2413    4.2546 C.ar      1 <0>        -0.0434
     29 C23        -3.4122   -1.1199    4.3414 C.ar      1 <0>        -0.0717
     30 C24        -4.4402   -1.5076    5.1444 C.ar      1 <0>        -0.1316
     31 C25        -5.1645   -0.5744    5.8841 C.ar      1 <0>        -0.1117
     32 C26        -4.8560    0.7502    5.8355 C.ar      1 <0>        -0.1233
     33 H1         -0.4782    3.2300    0.4376 H         1 <0>         0.0413
     34 H2         -1.8651    2.7015   -0.5449 H         1 <0>         0.0543
     35 H3         -1.8838    2.4679    1.2196 H         1 <0>         0.0565
     36 H4         -0.0853    1.0619   -0.8022 H         1 <0>         0.0627
     37 H5          0.1033    0.9259    0.9626 H         1 <0>         0.0494
     38 H6         -5.8366   -2.1961   -1.6931 H         1 <0>         0.1237
     39 H7         -4.6161   -3.4288   -2.0922 H         1 <0>         0.1241
     40 H8         -6.0277   -2.9791   -3.8716 H         1 <0>         0.1465
     41 H9         -7.1427   -3.3907   -6.0153 H         1 <0>         0.1390
     42 H10        -9.5950   -6.3806   -4.1831 H         1 <0>         0.1335
     43 H11        -8.4816   -5.9898   -2.0346 H         1 <0>         0.1377
     44 H12        -9.6534   -7.0921   -6.1452 H         1 <0>         0.0580
     45 H13       -10.8690   -5.8535   -5.7497 H         1 <0>         0.0581
     46 H14       -10.4827   -6.2104   -7.4502 H         1 <0>         0.1013
     47 H15        -1.0818   -1.2245    3.2098 H         1 <0>         0.0851
     48 H16        -0.2513    0.1143    2.3815 H         1 <0>         0.0891
     49 H17        -0.9130    2.3416    2.7406 H         1 <0>         0.1283
     50 H18        -2.1898    3.9867    4.0448 H         1 <0>         0.1185
     51 H19        -4.0218    3.2851    5.4890 H         1 <0>         0.1201
     52 H20        -2.8602   -1.8542    3.7735 H         1 <0>         0.1431
     53 H21        -4.6988   -2.5542    5.2092 H         1 <0>         0.1193
     54 H22        -5.9760   -0.9088    6.5135 H         1 <0>         0.1159
     55 H23        -5.4256    1.4618    6.4148 H         1 <0>         0.1192
@<TRIPOS>BOND
     1    1    2 1
     2    1   33 1
     3    1   34 1
     4    1   35 1
     5    2   36 1
     6    2   37 1
     7    2    3 1
     8    3    8 ar
     9    3    4 ar
    10    4   22 1
    11    4    5 ar
    12    5    6 ar
    13    6   10 1
    14    6    7 ar
    15    7    8 ar
    16    8    9 1
    17   10   11 1
    18   11   12 1
    19   11   38 1
    20   11   39 1
    21   12   13 2
    22   12   14 1
    23   14   19 ar
    24   14   15 ar
    25   15   16 ar
    26   15   40 1
    27   16   17 ar
    28   16   41 1
    29   17   18 ar
    30   17   20 1
    31   18   19 ar
    32   18   42 1
    33   19   43 1
    34   20   21 1
    35   21   44 1
    36   21   45 1
    37   21   46 1
    38   22   23 1
    39   22   47 1
    40   22   48 1
    41   23   28 ar
    42   23   24 ar
    43   24   25 ar
    44   24   49 1
    45   25   26 ar
    46   25   50 1
    47   26   27 ar
    48   26   51 1
    49   27   32 ar
    50   27   28 ar
    51   28   29 ar
    52   29   30 ar
    53   29   52 1
    54   30   31 ar
    55   30   53 1
    56   31   32 ar
    57   31   54 1
    58   32   55 1
@<TRIPOS>MOLECULE
CHEMBL440706__1
   56    59     0     0     0
SMALL
USER_CHARGES

@<TRIPOS>ATOM
      1 C1         -0.0187    1.5258    0.0104 C.3       1 <0>        -0.1467
      2 C2          0.0021   -0.0041    0.0020 C.3       1 <0>        -0.0633
      3 C3          0.7074   -0.4901   -1.2379 C.2       1 <0>        -0.2463
      4 C4          2.0351   -0.8055   -1.2020 C.2       1 <0>         0.1961
      5 N1          2.6496   -1.2343   -2.3014 N.2       1 <0>        -0.5353
      6 C5          2.0016   -1.3651   -3.4430 C.2       1 <0>         0.3571
      7 N2          0.6767   -1.0650   -3.5386 N.am      1 <0>        -0.6137
      8 C6          0.0075   -0.6315   -2.4489 C.2       1 <0>         0.5345
      9 O1         -1.1809   -0.3633   -2.5150 O.2       1 <0>        -0.5271
     10 S1          2.8650   -1.9373   -4.8684 S.3       1 <0>         0.0526
     11 C7          4.5598   -2.2020   -4.2781 C.3       1 <0>        -0.1653
     12 C8          5.4157   -2.6991   -5.4145 C.2       1 <0>         0.4208
     13 O2          4.9301   -2.8591   -6.5144 O.2       1 <0>        -0.4380
     14 C9          6.8376   -2.9898   -5.1901 C.ar      1 <0>        -0.2074
     15 C10         7.3992   -2.8115   -3.9197 C.ar      1 <0>        -0.0327
     16 C11         8.7273   -3.0848   -3.7154 C.ar      1 <0>        -0.1633
     17 C12         9.5163   -3.5380   -4.7673 C.ar      1 <0>         0.1696
     18 C13         8.9635   -3.7164   -6.0309 C.ar      1 <0>        -0.2223
     19 C14         7.6351   -3.4519   -6.2444 C.ar      1 <0>        -0.0095
     20 O3         10.8298   -3.8066   -4.5600 O.3       1 <0>        -0.3095
     21 C15        11.5826   -4.2687   -5.6833 C.3       1 <0>         0.0222
     22 C16         2.8064   -0.6674    0.0853 C.3       1 <0>        -0.0378
     23 C17         2.8397   -1.9958    0.7960 C.ar      1 <0>        -0.0681
     24 C18         1.9162   -2.2825    1.7541 C.ar      1 <0>        -0.1094
     25 C19         1.9311   -3.5053    2.4219 C.ar      1 <0>        -0.1134
     26 C20         2.8699   -4.4486    2.1359 C.ar      1 <0>        -0.1050
     27 C21         3.8395   -4.1887    1.1529 C.ar      1 <0>        -0.0498
     28 C22         3.8205   -2.9472    0.4692 C.ar      1 <0>        -0.0402
     29 C23         4.7870   -2.6897   -0.5183 C.ar      1 <0>        -0.0965
     30 C24         5.7218   -3.6352   -0.8083 C.ar      1 <0>        -0.1265
     31 C25         5.7365   -4.8586   -0.1405 C.ar      1 <0>        -0.1131
     32 C26         4.8248   -5.1378    0.8307 C.ar      1 <0>        -0.1080
     33 H1          1.0039    1.9031    0.0027 H         1 <0>         0.0527
     34 H2         -0.5459    1.8868   -0.8726 H         1 <0>         0.0572
     35 H3         -0.5289    1.8773    0.9072 H         1 <0>         0.0616
     36 H4          0.5293   -0.3651    0.8851 H         1 <0>         0.0778
     37 H5         -1.0205   -0.3814    0.0098 H         1 <0>         0.0795
     38 H6          0.2145   -1.1659   -4.3854 H         1 <0>         0.4213
     39 H7          4.9646   -1.2622   -3.9024 H         1 <0>         0.1371
     40 H8          4.5542   -2.9412   -3.4771 H         1 <0>         0.1374
     41 H9          6.7875   -2.4589   -3.1025 H         1 <0>         0.1399
     42 H10         9.1614   -2.9476   -2.7361 H         1 <0>         0.1415
     43 H11         9.5807   -4.0678   -6.8446 H         1 <0>         0.1380
     44 H12         7.2057   -3.5953   -7.2249 H         1 <0>         0.1397
     45 H13        12.6149   -4.4452   -5.3810 H         1 <0>         0.1059
     46 H14        11.1488   -5.1973   -6.0542 H         1 <0>         0.0609
     47 H15        11.5584   -3.5160   -6.4713 H         1 <0>         0.0609
     48 H16         3.8249   -0.3470   -0.1340 H         1 <0>         0.0993
     49 H17         2.3217    0.0731    0.7216 H         1 <0>         0.1024
     50 H18         1.1608   -1.5510    2.0006 H         1 <0>         0.1264
     51 H19         1.1869   -3.7075    3.1780 H         1 <0>         0.1251
     52 H20         2.8696   -5.3917    2.6622 H         1 <0>         0.1270
     53 H21         4.7875   -1.7466   -1.0445 H         1 <0>         0.1347
     54 H22         6.4633   -3.4348   -1.5675 H         1 <0>         0.1210
     55 H23         6.4892   -5.5918   -0.3901 H         1 <0>         0.1222
     56 H24         4.8489   -6.0897    1.3402 H         1 <0>         0.1258
@<TRIPOS>BOND
     1    1    2 1
     2    1   33 1
     3    1   34 1
     4    1   35 1
     5    2   36 1
     6    2   37 1
     7    2    3 1
     8    3    8 1
     9    3    4 2
    10    4   22 1
    11    4    5 1
    12    5    6 2
    13    6   10 1
    14    6    7 1
    15    7   38 1
    16    7    8 am
    17    8    9 2
    18   10   11 1
    19   11   12 1
    20   11   39 1
    21   11   40 1
    22   12   13 2
    23   12   14 1
    24   14   19 ar
    25   14   15 ar
    26   15   16 ar
    27   15   41 1
    28   16   17 ar
    29   16   42 1
    30   17   18 ar
    31   17   20 1
    32   18   19 ar
    33   18   43 1
    34   19   44 1
    35   20   21 1
    36   21   45 1
    37   21   46 1
    38   21   47 1
    39   22   23 1
    40   22   48 1
    41   22   49 1
    42   23   28 ar
    43   23   24 ar
    44   24   25 ar
    45   24   50 1
    46   25   26 ar
    47   25   51 1
    48   26   27 ar
    49   26   52 1
    50   27   32 ar
    51   27   28 ar
    52   28   29 ar
    53   29   30 ar
    54   29   53 1
    55   30   31 ar
    56   30   54 1
    57   31   32 ar
    58   31   55 1
    59   32   56 1
@<TRIPOS>MOLECULE
CHEMBL440706__2
   56    59     0     0     0
SMALL
USER_CHARGES

@<TRIPOS>ATOM
      1 C1         -0.0187    1.5258    0.0104 C.3       1 <0>        -0.1466
      2 C2          0.0021   -0.0041    0.0020 C.3       1 <0>        -0.0647
      3 C3          0.7074   -0.4901   -1.2379 C.2       1 <0>        -0.2324
      4 C4          2.0206   -0.8019   -1.2022 C.2       1 <0>         0.1669
      5 N1          2.6344   -1.2398   -2.3404 N.pl3     1 <0>        -0.5926
      6 C5          1.9314   -1.3605   -3.4988 C.2       1 <0>         0.3851
      7 N2          0.6487   -1.0605   -3.5518 N.2       1 <0>        -0.5882
      8 C6          0.0010   -0.6328   -2.4597 C.2       1 <0>         0.5197
      9 O1         -1.1890   -0.3624   -2.5171 O.2       1 <0>        -0.5052
     10 S1          2.7491   -1.9269   -4.9531 S.3       1 <0>         0.0437
     11 C7          1.4473   -1.9280   -6.2164 C.3       1 <0>        -0.1595
     12 C8          2.0206   -2.3988   -7.5281 C.2       1 <0>         0.4229
     13 O2          3.1922   -2.7036   -7.6034 O.2       1 <0>        -0.4412
     14 C9          1.1608   -2.4885   -8.7153 C.ar      1 <0>        -0.2102
     15 C10        -0.1908   -2.1316   -8.6325 C.ar      1 <0>        -0.0275
     16 C11        -0.9892   -2.2167   -9.7441 C.ar      1 <0>        -0.1640
     17 C12        -0.4589   -2.6570  -10.9521 C.ar      1 <0>         0.1690
     18 C13         0.8827   -3.0131  -11.0396 C.ar      1 <0>        -0.2242
     19 C14         1.6911   -2.9257   -9.9355 C.ar      1 <0>        -0.0099
     20 O3         -1.2531   -2.7399  -12.0487 O.3       1 <0>        -0.3098
     21 C15        -0.6447   -3.1997  -13.2572 C.3       1 <0>         0.0226
     22 C16         2.8005   -0.6677    0.0803 C.3       1 <0>        -0.0500
     23 C17         2.8363   -1.9976    0.7881 C.ar      1 <0>        -0.0849
     24 C18         1.9186   -2.2847    1.7516 C.ar      1 <0>        -0.0954
     25 C19         1.9359   -3.5089    2.4168 C.ar      1 <0>        -0.1150
     26 C20         2.8713   -4.4532    2.1228 C.ar      1 <0>        -0.0970
     27 C21         3.8348   -4.1929    1.1339 C.ar      1 <0>        -0.0524
     28 C22         3.8134   -2.9499    0.4528 C.ar      1 <0>        -0.0386
     29 C23         4.7737   -2.6920   -0.5405 C.ar      1 <0>        -0.1302
     30 C24         5.7051   -3.6384   -0.8385 C.ar      1 <0>        -0.0992
     31 C25         5.7222   -4.8631   -0.1733 C.ar      1 <0>        -0.1185
     32 C26         4.8165   -5.1429    0.8032 C.ar      1 <0>        -0.0951
     33 H1          1.0039    1.9031    0.0027 H         1 <0>         0.0512
     34 H2         -0.5459    1.8868   -0.8726 H         1 <0>         0.0600
     35 H3         -0.5289    1.8773    0.9072 H         1 <0>         0.0623
     36 H4          0.5293   -0.3651    0.8851 H         1 <0>         0.0731
     37 H5         -1.0205   -0.3814    0.0098 H         1 <0>         0.0839
     38 H6          0.6440   -2.5978   -5.9097 H         1 <0>         0.1387
     39 H7          1.0537   -0.9182   -6.3334 H         1 <0>         0.1390
     40 H8         -0.6037   -1.7903   -7.6948 H         1 <0>         0.1432
     41 H9         -2.0317   -1.9417   -9.6813 H         1 <0>         0.1415
     42 H10         1.2895   -3.3550  -11.9798 H         1 <0>         0.1377
     43 H11         2.7339   -3.1978  -10.0056 H         1 <0>         0.1394
     44 H12        -1.3882   -3.2185  -14.0540 H         1 <0>         0.1055
     45 H13         0.1674   -2.5273  -13.5338 H         1 <0>         0.0605
     46 H14        -0.2491   -4.2040  -13.1055 H         1 <0>         0.0605
     47 H15         3.8181   -0.3485   -0.1451 H         1 <0>         0.0979
     48 H16         2.3212    0.0723    0.7213 H         1 <0>         0.1181
     49 H17         1.1661   -1.5525    2.0046 H         1 <0>         0.1298
     50 H18         1.1964   -3.7115    3.1774 H         1 <0>         0.1286
     51 H19         2.8730   -5.3973    2.6471 H         1 <0>         0.1305
     52 H20         4.7723   -1.7478   -1.0647 H         1 <0>         0.1153
     53 H21         6.4419   -3.4376   -1.6022 H         1 <0>         0.1278
     54 H22         6.4720   -5.5971   -0.4294 H         1 <0>         0.1272
     55 H23         4.8423   -6.0959    1.3107 H         1 <0>         0.1303
     56 H24         3.5775   -1.4659   -2.3230 H         1 <0>         0.4205
@<TRIPOS>BOND
     1    1    2 1
     2    1   33 1
     3    1   34 1
     4    1   35 1
     5    2   36 1
     6    2   37 1
     7    2    3 1
     8    3    8 1
     9    3    4 2
    10    4   22 1
    11    4    5 1
    12    5    6 1
    13    5   56 1
    14    6   10 1
    15    6    7 2
    16    7    8 1
    17    8    9 2
    18   10   11 1
    19   11   12 1
    20   11   38 1
    21   11   39 1
    22   12   13 2
    23   12   14 1
    24   14   19 ar
    25   14   15 ar
    26   15   16 ar
    27   15   40 1
    28   16   17 ar
    29   16   41 1
    30   17   18 ar
    31   17   20 1
    32   18   19 ar
    33   18   42 1
    34   19   43 1
    35   20   21 1
    36   21   44 1
    37   21   45 1
    38   21   46 1
    39   22   23 1
    40   22   47 1
    41   22   48 1
    42   23   28 ar
    43   23   24 ar
    44   24   25 ar
    45   24   49 1
    46   25   26 ar
    47   25   50 1
    48   26   27 ar
    49   26   51 1
    50   27   32 ar
    51   27   28 ar
    52   28   29 ar
    53   29   30 ar
    54   29   52 1
    55   30   31 ar
    56   30   53 1
    57   31   32 ar
    58   31   54 1
    59   32   55 1
@<TRIPOS>MOLECULE
CHEMBL341350
   59    62     0     0     0
SMALL
USER_CHARGES

@<TRIPOS>ATOM
      1 C1         -0.0184    1.5028    0.0103 C.3       1 <0>        -0.0698
      2 C2          0.0021   -0.0041    0.0020 C.2       1 <0>         0.0641
      3 C3          0.0081   -0.8163   -1.1157 C.2       1 <0>        -0.0937
      4 C4         -0.0014   -0.5731   -2.5023 C.2       1 <0>         0.0273
      5 C5          0.0090   -1.6290   -3.3575 C.2       1 <0>        -0.2276
      6 C6          0.0287   -2.9459   -2.8542 C.2       1 <0>         0.4412
      7 N1          0.0372   -3.1768   -1.5637 N.2       1 <0>        -0.3576
      8 N2          0.0278   -2.1169   -0.6515 N.pl3     1 <0>        -0.2452
      9 C7          0.0330   -2.0545    0.6919 C.2       1 <0>         0.2414
     10 N3          0.0235   -0.7988    1.0709 N.2       1 <0>        -0.4646
     11 C8          0.0526   -3.2429    1.6183 C.3       1 <0>        -0.0303
     12 C9          1.5016   -3.6264    1.9253 C.3       1 <0>        -0.1098
     13 C10         1.5214   -4.8331    2.8659 C.3       1 <0>        -0.1177
     14 C11         2.9704   -5.2165    3.1729 C.3       1 <0>        -0.1188
     15 C12         2.9903   -6.4232    4.1134 C.3       1 <0>        -0.1114
     16 C13         4.4392   -6.8067    4.4205 C.3       1 <0>        -0.1666
     17 C14         4.4588   -7.9951    5.3469 C.2       1 <0>         0.3950
     18 O1          3.4167   -8.4869    5.7242 O.2       1 <0>        -0.4500
     19 C15         5.7428   -8.5589    5.7935 C.ar      1 <0>        -0.1728
     20 C16         6.9468   -7.9910    5.3651 C.ar      1 <0>        -0.0737
     21 C17         8.1457   -8.5247    5.7883 C.ar      1 <0>        -0.1335
     22 C18         8.1595   -9.6195    6.6349 C.ar      1 <0>        -0.0883
     23 C19         6.9722  -10.1875    7.0630 C.ar      1 <0>        -0.1326
     24 C20         5.7651   -9.6618    6.6532 C.ar      1 <0>        -0.0628
     25 N4          0.0387   -4.0172   -3.7410 N.pl3     1 <0>        -0.6007
     26 C21         0.0371   -3.9154   -5.2077 C.3       1 <0>         0.1156
     27 C22         0.0246   -5.3538   -5.7668 C.3       1 <0>        -0.1317
     28 C23        -0.5514   -6.1803   -4.5867 C.3       1 <0>        -0.1349
     29 C24         0.0592   -5.4428   -3.3661 C.3       1 <0>         0.1131
     30 H1          1.0042    1.8801    0.0026 H         1 <0>         0.0748
     31 H2         -0.5455    1.8639   -0.8728 H         1 <0>         0.0714
     32 H3         -0.5286    1.8543    0.9071 H         1 <0>         0.0776
     33 H4         -0.0172    0.4383   -2.8809 H         1 <0>         0.1557
     34 H5          0.0019   -1.4593   -4.4241 H         1 <0>         0.1438
     35 H6         -0.4605   -2.9891    2.5459 H         1 <0>         0.0953
     36 H7         -0.4525   -4.0832    1.1420 H         1 <0>         0.0835
     37 H8          2.0146   -3.8803    0.9977 H         1 <0>         0.0603
     38 H9          2.0067   -2.7861    2.4017 H         1 <0>         0.0682
     39 H10         1.0084   -4.5792    3.7935 H         1 <0>         0.0667
     40 H11         1.0163   -5.6734    2.3895 H         1 <0>         0.0639
     41 H12         3.4834   -5.4704    2.2453 H         1 <0>         0.0615
     42 H13         3.4755   -4.3763    3.6492 H         1 <0>         0.0638
     43 H14         2.4772   -6.1693    5.0410 H         1 <0>         0.0695
     44 H15         2.4852   -7.2635    3.6371 H         1 <0>         0.0684
     45 H16         4.9523   -7.0605    3.4929 H         1 <0>         0.0990
     46 H17         4.9444   -5.9664    4.8968 H         1 <0>         0.0998
     47 H18         6.9377   -7.1368    4.7042 H         1 <0>         0.1323
     48 H19         9.0764   -8.0874    5.4581 H         1 <0>         0.1298
     49 H20         9.1017  -10.0330    6.9630 H         1 <0>         0.1279
     50 H21         6.9911  -11.0419    7.7233 H         1 <0>         0.1296
     51 H22         4.8394  -10.1033    6.9916 H         1 <0>         0.1332
     52 H23        -0.8520   -3.3803   -5.5412 H         1 <0>         0.0697
     53 H24         0.9336   -3.3948   -5.5442 H         1 <0>         0.0695
     54 H25        -0.6252   -5.4228   -6.6392 H         1 <0>         0.0875
     55 H26         1.0351   -5.6817   -6.0103 H         1 <0>         0.0802
     56 H27        -1.6402   -6.1331   -4.5713 H         1 <0>         0.0781
     57 H28        -0.2072   -7.2137   -4.6288 H         1 <0>         0.0880
     58 H29         1.0828   -5.7747   -3.1924 H         1 <0>         0.0679
     59 H30        -0.5506   -5.6103   -2.4782 H         1 <0>         0.0798
@<TRIPOS>BOND
     1    1    2 1
     2    1   30 1
     3    1   31 1
     4    1   32 1
     5    2   10 1
     6    2    3 2
     7    3    8 1
     8    3    4 1
     9    4    5 2
    10    4   33 1
    11    5    6 1
    12    5   34 1
    13    6    7 2
    14    6   25 1
    15    7    8 1
    16    8    9 1
    17    9   10 2
    18    9   11 1
    19   11   12 1
    20   11   35 1
    21   11   36 1
    22   12   13 1
    23   12   37 1
    24   12   38 1
    25   13   14 1
    26   13   39 1
    27   13   40 1
    28   14   15 1
    29   14   41 1
    30   14   42 1
    31   15   16 1
    32   15   43 1
    33   15   44 1
    34   16   17 1
    35   16   45 1
    36   16   46 1
    37   17   18 2
    38   17   19 1
    39   19   24 ar
    40   19   20 ar
    41   20   21 ar
    42   20   47 1
    43   21   22 ar
    44   21   48 1
    45   22   23 ar
    46   22   49 1
    47   23   24 ar
    48   23   50 1
    49   24   51 1
    50   25   29 1
    51   25   26 1
    52   26   27 1
    53   26   52 1
    54   26   53 1
    55   27   28 1
    56   27   54 1
    57   27   55 1
    58   28   29 1
    59   28   56 1
    60   28   57 1
    61   29   58 1
    62   29   59 1
@<TRIPOS>MOLECULE
CHEMBL30442
   35    38     0     0     0
SMALL
USER_CHARGES

@<TRIPOS>ATOM
      1 C1         -0.0178    1.4608    0.0101 C.3       1 <0>         0.0513
      2 N1          0.0021   -0.0041    0.0020 N.am      1 <0>        -0.5386
      3 C2         -1.2323   -0.6374    0.0048 C.ar      1 <0>         0.1099
      4 C3         -2.2424   -0.1315    0.8290 C.ar      1 <0>        -0.0796
      5 C4         -3.4767   -0.7545    0.8255 C.ar      1 <0>        -0.1287
      6 C5         -3.6714   -1.8545    0.0078 C.ar      1 <0>         0.1715
      7 N2         -2.6974   -2.3082   -0.7535 N.ar      1 <0>        -0.4475
      8 C6         -1.4983   -1.7452   -0.7772 C.ar      1 <0>         0.1468
      9 C7         -0.4414   -2.3491   -1.6591 C.3       1 <0>         0.0364
     10 C8          0.6952   -2.8772   -0.8302 C.ar      1 <0>         0.1792
     11 C9          1.4546   -2.0185   -0.0416 C.ar      1 <0>        -0.1744
     12 C10         2.5006   -2.5488    0.7276 C.ar      1 <0>        -0.0174
     13 C11         2.7399   -3.9095    0.6647 C.ar      1 <0>        -0.1761
     14 C12         1.9448   -4.6965   -0.1488 C.ar      1 <0>         0.1314
     15 N3          0.9662   -4.1699   -0.8574 N.ar      1 <0>        -0.4774
     16 C13         1.1924   -0.5745   -0.0124 C.2       1 <0>         0.5744
     17 O1          2.1589    0.1626    0.0044 O.2       1 <0>        -0.5198
     18 C14         0.0865   -1.2815   -2.6196 C.3       1 <0>        -0.1675
     19 C15        -0.2469   -1.4402   -4.1044 C.3       1 <0>        -0.1601
     20 C16         1.1773   -1.6980   -3.6083 C.3       1 <0>        -0.1660
     21 Cl1        -5.2168   -2.6451   -0.0137 Cl        1 <0>        -0.0171
     22 H1          1.0048    1.8381    0.0023 H         1 <0>         0.1101
     23 H2         -0.5450    1.8219   -0.8730 H         1 <0>         0.0734
     24 H3         -0.5280    1.8123    0.9069 H         1 <0>         0.0736
     25 H4         -2.0618    0.7289    1.4563 H         1 <0>         0.1561
     26 H5         -4.2769   -0.3887    1.4517 H         1 <0>         0.1572
     27 H6         -0.8764   -3.1652   -2.2359 H         1 <0>         0.1260
     28 H7          3.1052   -1.9096    1.3539 H         1 <0>         0.1473
     29 H8          3.5375   -4.3519    1.2430 H         1 <0>         0.1487
     30 H9          2.1288   -5.7593   -0.2042 H         1 <0>         0.1677
     31 H10         0.1305   -0.2688   -2.2188 H         1 <0>         0.1102
     32 H11        -0.8423   -2.3051   -4.3969 H         1 <0>         0.1021
     33 H12        -0.4224   -0.5318   -4.6807 H         1 <0>         0.0995
     34 H13         1.9388   -0.9592   -3.8583 H         1 <0>         0.0991
     35 H14         1.5189   -2.7325   -3.5745 H         1 <0>         0.0982
@<TRIPOS>BOND
     1    1    2 1
     2    1   22 1
     3    1   23 1
     4    1   24 1
     5    2   16 am
     6    2    3 1
     7    3    8 ar
     8    3    4 ar
     9    4    5 ar
    10    4   25 1
    11    5    6 ar
    12    5   26 1
    13    6    7 ar
    14    6   21 1
    15    7    8 ar
    16    8    9 1
    17    9   10 1
    18    9   18 1
    19    9   27 1
    20   10   15 ar
    21   10   11 ar
    22   11   12 ar
    23   11   16 1
    24   12   13 ar
    25   12   28 1
    26   13   14 ar
    27   13   29 1
    28   14   15 ar
    29   14   30 1
    30   16   17 2
    31   18   20 1
    32   18   19 1
    33   18   31 1
    34   19   20 1
    35   19   32 1
    36   19   33 1
    37   20   34 1
    38   20   35 1
@<TRIPOS>MOLECULE
CHEMBL30442__1
   35    38     0     0     0
SMALL
USER_CHARGES

@<TRIPOS>ATOM
      1 C1         -0.0178    1.4608    0.0101 C.3       1 <0>         0.0528
      2 N1          0.0021   -0.0041    0.0020 N.am      1 <0>        -0.5349
      3 C2         -1.2323   -0.6374    0.0048 C.ar      1 <0>         0.1144
      4 C3         -2.2510   -0.1220   -0.8027 C.ar      1 <0>        -0.0808
      5 C4         -3.4852   -0.7452   -0.7935 C.ar      1 <0>        -0.1287
      6 C5         -3.6714   -1.8546    0.0134 C.ar      1 <0>         0.1706
      7 N2         -2.6897   -2.3164    0.7599 N.ar      1 <0>        -0.4489
      8 C6         -1.4901   -1.7542    0.7767 C.ar      1 <0>         0.1470
      9 C7         -0.4240   -2.3681    1.6405 C.3       1 <0>         0.0363
     10 C8          0.7038   -2.8866    0.7936 C.ar      1 <0>         0.1791
     11 C9          1.4547   -2.0188    0.0068 C.ar      1 <0>        -0.1795
     12 C10         2.4923   -2.5402   -0.7796 C.ar      1 <0>        -0.0167
     13 C11         2.7321   -3.9016   -0.7350 C.ar      1 <0>        -0.1761
     14 C12         1.9458   -4.6979    0.0779 C.ar      1 <0>         0.1324
     15 N3          0.9749   -4.1795    0.8030 N.ar      1 <0>        -0.4759
     16 C13         1.1924   -0.5745   -0.0124 C.2       1 <0>         0.5719
     17 O1          2.1585    0.1629   -0.0398 O.2       1 <0>        -0.5220
     18 C14         0.1139   -1.3117    2.6077 C.3       1 <0>        -0.1617
     19 C15         0.1588   -1.6722    4.0939 C.3       1 <0>        -0.1609
     20 C16        -0.8797   -0.6729    3.5801 C.3       1 <0>        -0.1657
     21 Cl1        -5.2166   -2.6454    0.0420 Cl        1 <0>        -0.0177
     22 H1          1.0048    1.8381    0.0023 H         1 <0>         0.1092
     23 H2         -0.5450    1.8219   -0.8730 H         1 <0>         0.0726
     24 H3         -0.5280    1.8123    0.9069 H         1 <0>         0.0740
     25 H4         -2.0771    0.7460   -1.4213 H         1 <0>         0.1557
     26 H5         -4.2922   -0.3717   -1.4064 H         1 <0>         0.1567
     27 H6         -0.8530   -3.1909    2.2124 H         1 <0>         0.1261
     28 H7          3.0897   -1.8939   -1.4056 H         1 <0>         0.1479
     29 H8          3.5234   -4.3372   -1.3269 H         1 <0>         0.1491
     30 H9          2.1303   -5.7612    0.1191 H         1 <0>         0.1683
     31 H10         0.9131   -0.6811    2.2181 H         1 <0>         0.1061
     32 H11        -0.1950   -2.6619    4.3827 H         1 <0>         0.1025
     33 H12         0.9877   -1.2788    4.6824 H         1 <0>         0.0999
     34 H13        -0.7340    0.3779    3.8306 H         1 <0>         0.0983
     35 H14        -1.9166   -1.0053    3.5308 H         1 <0>         0.0985
@<TRIPOS>BOND
     1    1    2 1
     2    1   22 1
     3    1   23 1
     4    1   24 1
     5    2   16 am
     6    2    3 1
     7    3    8 ar
     8    3    4 ar
     9    4    5 ar
    10    4   25 1
    11    5    6 ar
    12    5   26 1
    13    6    7 ar
    14    6   21 1
    15    7    8 ar
    16    8    9 1
    17    9   10 1
    18    9   18 1
    19    9   27 1
    20   10   15 ar
    21   10   11 ar
    22   11   12 ar
    23   11   16 1
    24   12   13 ar
    25   12   28 1
    26   13   14 ar
    27   13   29 1
    28   14   15 ar
    29   14   30 1
    30   16   17 2
    31   18   20 1
    32   18   19 1
    33   18   31 1
    34   19   20 1
    35   19   32 1
    36   19   33 1
    37   20   34 1
    38   20   35 1
@<TRIPOS>MOLECULE
CHEMBL145893
   58    62     0     0     0
SMALL
USER_CHARGES

@<TRIPOS>ATOM
      1 C1         -0.0187    1.5258    0.0104 C.3       1 <0>        -0.1721
      2 C2          0.0021   -0.0041    0.0020 C.3       1 <0>         0.1366
      3 N1          0.7106   -0.4894    1.1889 N.pl3     1 <0>        -0.5772
      4 C3          2.0787   -0.6987    1.1512 C.ar      1 <0>         0.4176
      5 C4          2.9156   -0.0008    2.0374 C.ar      1 <0>        -0.2047
      6 C5          4.2849   -0.2892    2.0387 C.ar      1 <0>        -0.0002
      7 C6          4.7626   -1.2210    1.1332 C.ar      1 <0>        -0.1917
      8 C7          3.8827   -1.8339    0.2601 C.ar      1 <0>         0.1526
      9 N2          2.5920   -1.5642    0.2901 N.ar      1 <0>        -0.4985
     10 C8          2.3844    1.0420    2.9192 C.2       1 <0>         0.5819
     11 O1          3.0713    2.0317    3.0830 O.2       1 <0>        -0.5222
     12 N3          1.2223    1.0020    3.5542 N.am      1 <0>        -0.6471
     13 C9          0.2981   -0.0397    3.5366 C.ar      1 <0>         0.0933
     14 C10         0.0163   -0.7404    2.3713 C.ar      1 <0>         0.3738
     15 N4         -0.9197   -1.6788    2.3719 N.ar      1 <0>        -0.4631
     16 C11        -1.5835   -2.0059    3.4737 C.ar      1 <0>         0.1878
     17 C12        -1.3153   -1.3673    4.6800 C.ar      1 <0>        -0.1214
     18 C13        -0.3662   -0.3773    4.7126 C.ar      1 <0>        -0.0520
     19 C14        -0.0557    0.3375    6.0025 C.3       1 <0>         0.1037
     20 O2         -0.8692   -0.1948    7.0498 O.3       1 <0>        -0.3076
     21 C15        -0.7121    0.3440    8.2875 C.ar      1 <0>         0.1265
     22 C16         0.2021    1.3680    8.4886 C.ar      1 <0>        -0.2086
     23 C17         0.3595    1.9144    9.7476 C.ar      1 <0>        -0.0789
     24 C18        -0.3926    1.4412   10.8069 C.ar      1 <0>        -0.1546
     25 C19        -1.3040    0.4204   10.6091 C.ar      1 <0>        -0.0796
     26 C20        -1.4697   -0.1251    9.3508 C.ar      1 <0>        -0.1480
     27 C21        -2.6217   -3.0634    3.4182 C.ar      1 <0>        -0.0146
     28 C22        -3.3286   -3.4103    4.5688 C.ar      1 <0>        -0.1333
     29 C23        -4.2942   -4.3949    4.5146 C.ar      1 <0>        -0.0815
     30 C24        -4.5635   -5.0395    3.3214 C.ar      1 <0>        -0.1946
     31 C25        -3.8641   -4.7005    2.1715 C.ar      1 <0>         0.1226
     32 C26        -2.8975   -3.7092    2.2152 C.ar      1 <0>        -0.1083
     33 O3         -4.1316   -5.3374    1.0010 O.3       1 <0>        -0.3153
     34 C27        -5.1447   -6.3449    1.0275 C.3       1 <0>         0.0263
     35 H1          1.0039    1.9031    0.0027 H         1 <0>         0.0545
     36 H2         -0.5459    1.8868   -0.8726 H         1 <0>         0.0731
     37 H3         -0.5289    1.8773    0.9072 H         1 <0>         0.0547
     38 H4         -1.0205   -0.3814    0.0098 H         1 <0>         0.0849
     39 H5          0.5123   -0.3556   -0.8948 H         1 <0>         0.0852
     40 H6          4.9531    0.2036    2.7294 H         1 <0>         0.1485
     41 H7          5.8139   -1.4670    1.1087 H         1 <0>         0.1493
     42 H8          4.2591   -2.5458   -0.4595 H         1 <0>         0.1685
     43 H9          0.9909    1.7793    4.0864 H         1 <0>         0.4103
     44 H10        -1.8449   -1.6493    5.5780 H         1 <0>         0.1598
     45 H11         0.9960    0.1965    6.2519 H         1 <0>         0.0864
     46 H12        -0.2623    1.4015    5.8871 H         1 <0>         0.0834
     47 H13         0.7903    1.7375    7.6616 H         1 <0>         0.1264
     48 H14         1.0711    2.7116    9.9046 H         1 <0>         0.1264
     49 H15        -0.2678    1.8694   11.7905 H         1 <0>         0.1254
     50 H16        -1.8901    0.0523   11.4382 H         1 <0>         0.1313
     51 H17        -2.1849   -0.9194    9.1960 H         1 <0>         0.1323
     52 H18        -3.1204   -2.9090    5.5025 H         1 <0>         0.1315
     53 H19        -4.8408   -4.6629    5.4067 H         1 <0>         0.1314
     54 H20        -5.3201   -5.8092    3.2841 H         1 <0>         0.1308
     55 H21        -2.3560   -3.4408    1.3201 H         1 <0>         0.1435
     56 H22        -4.8593   -7.1288    1.7289 H         1 <0>         0.0563
     57 H23        -6.0895   -5.9018    1.3424 H         1 <0>         0.0564
     58 H24        -5.2580   -6.7724    0.0312 H         1 <0>         0.1017
@<TRIPOS>BOND
     1    1    2 1
     2    1   35 1
     3    1   36 1
     4    1   37 1
     5    2    3 1
     6    2   38 1
     7    2   39 1
     8    3   14 1
     9    3    4 1
    10    4    9 ar
    11    4    5 ar
    12    5    6 ar
    13    5   10 1
    14    6    7 ar
    15    6   40 1
    16    7    8 ar
    17    7   41 1
    18    8    9 ar
    19    8   42 1
    20   10   11 2
    21   10   12 am
    22   12   13 1
    23   12   43 1
    24   13   18 ar
    25   13   14 ar
    26   14   15 ar
    27   15   16 ar
    28   16   17 ar
    29   16   27 1
    30   17   18 ar
    31   17   44 1
    32   18   19 1
    33   19   20 1
    34   19   45 1
    35   19   46 1
    36   20   21 1
    37   21   26 ar
    38   21   22 ar
    39   22   23 ar
    40   22   47 1
    41   23   24 ar
    42   23   48 1
    43   24   25 ar
    44   24   49 1
    45   25   26 ar
    46   25   50 1
    47   26   51 1
    48   27   32 ar
    49   27   28 ar
    50   28   29 ar
    51   28   52 1
    52   29   30 ar
    53   29   53 1
    54   30   31 ar
    55   30   54 1
    56   31   32 ar
    57   31   33 1
    58   32   55 1
    59   33   34 1
    60   34   56 1
    61   34   57 1
    62   34   58 1
@<TRIPOS>MOLECULE
CHEMBL342771
   42    45     0     0     0
SMALL
USER_CHARGES

@<TRIPOS>ATOM
      1 C1         -0.0187    1.5258    0.0104 C.3       1 <0>        -0.1714
      2 C2          0.0021   -0.0041    0.0020 C.3       1 <0>         0.1378
      3 N1         -1.3723   -0.5112    0.0124 N.pl3     1 <0>        -0.5779
      4 C3         -2.0201   -0.7547    1.2116 C.ar      1 <0>         0.4166
      5 C4         -3.2168   -0.0812    1.5069 C.ar      1 <0>        -0.2019
      6 C5         -3.8978   -0.4039    2.6860 C.ar      1 <0>        -0.0007
      7 C6         -3.3377   -1.3440    3.5338 C.ar      1 <0>        -0.1918
      8 C7         -2.1321   -1.9314    3.1964 C.ar      1 <0>         0.1508
      9 N2         -1.5174   -1.6296    2.0693 N.ar      1 <0>        -0.5000
     10 C8         -3.7315    0.9713    0.6268 C.2       1 <0>         0.5770
     11 O1         -4.2322    1.9428    1.1594 O.2       1 <0>        -0.5234
     12 N3         -3.6993    0.9585   -0.6976 N.am      1 <0>        -0.5379
     13 C9         -3.2066   -0.0590   -1.5093 C.ar      1 <0>         0.1021
     14 C10        -2.0455   -0.7488   -1.1848 C.ar      1 <0>         0.3627
     15 N4         -1.5638   -1.6629   -2.0141 N.ar      1 <0>        -0.4625
     16 C11        -2.1814   -1.9771   -3.1464 C.ar      1 <0>         0.1780
     17 C12        -3.3700   -1.3497   -3.5046 C.ar      1 <0>        -0.1118
     18 C13        -3.8878   -0.3835   -2.6794 C.ar      1 <0>        -0.0866
     19 C14        -1.5978   -3.0074   -4.0388 C.ar      1 <0>         0.1617
     20 C15        -0.4097   -3.6408   -3.6789 C.ar      1 <0>        -0.1282
     21 C16         0.1229   -4.6004   -4.5222 C.ar      1 <0>        -0.0789
     22 C17        -0.5509   -4.8955   -5.6991 C.ar      1 <0>        -0.1623
     23 C18        -1.7255   -4.2282   -5.9938 C.ar      1 <0>         0.1022
     24 N5         -2.2139   -3.3227   -5.1709 N.ar      1 <0>        -0.4713
     25 C19        -4.2390    2.1381   -1.3785 C.3       1 <0>         0.0576
     26 H1          1.0039    1.9031    0.0027 H         1 <0>         0.0724
     27 H2         -0.5459    1.8868   -0.8726 H         1 <0>         0.0542
     28 H3         -0.5289    1.8773    0.9072 H         1 <0>         0.0543
     29 H4          0.5123   -0.3556   -0.8948 H         1 <0>         0.0831
     30 H5          0.5293   -0.3651    0.8851 H         1 <0>         0.0843
     31 H6         -4.8379    0.0689    2.9287 H         1 <0>         0.1482
     32 H7         -3.8383   -1.6167    4.4511 H         1 <0>         0.1490
     33 H8         -1.6859   -2.6500    3.8680 H         1 <0>         0.1680
     34 H9         -3.8783   -1.6211   -4.4180 H         1 <0>         0.1589
     35 H10        -4.8072    0.1203   -2.9389 H         1 <0>         0.1507
     36 H11         0.0886   -3.3862   -2.7552 H         1 <0>         0.1464
     37 H12         1.0423   -5.1078   -4.2702 H         1 <0>         0.1393
     38 H13        -0.1612   -5.6391   -6.3785 H         1 <0>         0.1390
     39 H14        -2.2522   -4.4557   -6.9089 H         1 <0>         0.1624
     40 H15        -4.5904    2.8562   -0.6377 H         1 <0>         0.1068
     41 H16        -3.4584    2.5956   -1.9864 H         1 <0>         0.0708
     42 H17        -5.0698    1.8400   -2.0182 H         1 <0>         0.0721
@<TRIPOS>BOND
     1    1    2 1
     2    1   26 1
     3    1   27 1
     4    1   28 1
     5    2    3 1
     6    2   29 1
     7    2   30 1
     8    3   14 1
     9    3    4 1
    10    4    9 ar
    11    4    5 ar
    12    5    6 ar
    13    5   10 1
    14    6    7 ar
    15    6   31 1
    16    7    8 ar
    17    7   32 1
    18    8    9 ar
    19    8   33 1
    20   10   11 2
    21   10   12 am
    22   12   13 1
    23   12   25 1
    24   13   18 ar
    25   13   14 ar
    26   14   15 ar
    27   15   16 ar
    28   16   17 ar
    29   16   19 1
    30   17   18 ar
    31   17   34 1
    32   18   35 1
    33   19   24 ar
    34   19   20 ar
    35   20   21 ar
    36   20   36 1
    37   21   22 ar
    38   21   37 1
    39   22   23 ar
    40   22   38 1
    41   23   24 ar
    42   23   39 1
    43   25   40 1
    44   25   41 1
    45   25   42 1
@<TRIPOS>MOLECULE
CHEMBL342771__1
   43    46     0     0     0
SMALL
USER_CHARGES

@<TRIPOS>ATOM
      1 C1         -0.0187    1.5258    0.0104 C.3       1 <0>        -0.1744
      2 C2          0.0021   -0.0041    0.0020 C.3       1 <0>         0.1358
      3 N1          0.7106   -0.4894    1.1889 N.pl3     1 <0>        -0.5772
      4 C3          2.0787   -0.6987    1.1512 C.ar      1 <0>         0.4060
      5 C4          2.9155   -0.0009    2.0376 C.ar      1 <0>        -0.2044
      6 C5          4.2848   -0.2894    2.0390 C.ar      1 <0>         0.0021
      7 C6          4.7626   -1.2210    1.1333 C.ar      1 <0>        -0.1816
      8 C7          3.8827   -1.8337    0.2600 C.ar      1 <0>         0.1552
      9 N2          2.5921   -1.5641    0.2901 N.ar      1 <0>        -0.4961
     10 C8          2.3843    1.0416    2.9196 C.2       1 <0>         0.5766
     11 O1          3.0712    2.0313    3.0836 O.2       1 <0>        -0.4995
     12 N3          1.2219    1.0019    3.5540 N.am      1 <0>        -0.5438
     13 C9          0.2984   -0.0392    3.5367 C.ar      1 <0>         0.1494
     14 C10         0.0164   -0.7404    2.3713 C.ar      1 <0>         0.3810
     15 N4         -0.9194   -1.6783    2.3720 N.ar      1 <0>        -0.4386
     16 C11        -1.5832   -2.0054    3.4740 C.ar      1 <0>         0.1091
     17 C12        -1.3151   -1.3668    4.6803 C.ar      1 <0>        -0.1265
     18 C13        -0.3662   -0.3764    4.7127 C.ar      1 <0>        -0.0769
     19 C14        -2.6217   -3.0623    3.4183 C.ar      1 <0>         0.2175
     20 C15        -2.8879   -3.7068    2.2116 C.ar      1 <0>        -0.0891
     21 C16        -3.8601   -4.6912    2.1754 C.ar      1 <0>         0.0081
     22 C17        -4.5350   -4.9993    3.3483 C.ar      1 <0>        -0.1240
     23 C18        -4.2199   -4.3198    4.5106 C.ar      1 <0>         0.1390
     24 N5         -3.2861   -3.3905    4.5190 N.ar      1 <0>        -0.4463
     25 C19         0.8724    2.1758    4.3577 C.3       1 <0>         0.0520
     26 H1          1.0039    1.9031    0.0027 H         1 <0>         0.0583
     27 H2         -0.5459    1.8868   -0.8726 H         1 <0>         0.0783
     28 H3         -0.5289    1.8773    0.9072 H         1 <0>         0.0530
     29 H4         -1.0205   -0.3814    0.0098 H         1 <0>         0.0832
     30 H5          0.5123   -0.3556   -0.8948 H         1 <0>         0.0914
     31 H6          4.9529    0.2028    2.7302 H         1 <0>         0.1525
     32 H7          5.8138   -1.4675    1.1093 H         1 <0>         0.1547
     33 H8          4.2592   -2.5455   -0.4597 H         1 <0>         0.1734
     34 H9         -1.8451   -1.6485    5.5781 H         1 <0>         0.1462
     35 H10        -0.1441    0.1363    5.6369 H         1 <0>         0.1656
     36 H11        -2.3436   -3.4416    1.3174 H         1 <0>         0.1917
     37 H12        -4.0886   -5.2078    1.2549 H         1 <0>         0.1820
     38 H13        -5.2993   -5.7623    3.3531 H         1 <0>         0.1895
     39 H14        -4.7433   -4.5573    5.4250 H         1 <0>         0.2152
     40 H15         1.6714    2.9140    4.2892 H         1 <0>         0.1143
     41 H16        -0.0554    2.6089    3.9840 H         1 <0>         0.0759
     42 H17         0.7412    1.8780    5.3980 H         1 <0>         0.0761
     43 H18        -3.0820   -2.9323    5.3492 H         1 <0>         0.4452
@<TRIPOS>BOND
     1    1    2 1
     2    1   26 1
     3    1   27 1
     4    1   28 1
     5    2    3 1
     6    2   29 1
     7    2   30 1
     8    3   14 1
     9    3    4 1
    10    4    9 ar
    11    4    5 ar
    12    5    6 ar
    13    5   10 1
    14    6    7 ar
    15    6   31 1
    16    7    8 ar
    17    7   32 1
    18    8    9 ar
    19    8   33 1
    20   10   11 2
    21   10   12 am
    22   12   13 1
    23   12   25 1
    24   13   18 ar
    25   13   14 ar
    26   14   15 ar
    27   15   16 ar
    28   16   17 ar
    29   16   19 1
    30   17   18 ar
    31   17   34 1
    32   18   35 1
    33   19   24 ar
    34   19   20 ar
    35   20   21 ar
    36   20   36 1
    37   21   22 ar
    38   21   37 1
    39   22   23 ar
    40   22   38 1
    41   23   24 ar
    42   23   39 1
    43   24   43 1
    44   25   40 1
    45   25   41 1
    46   25   42 1
@<TRIPOS>MOLECULE
CHEMBL342771__2
   43    46     0     0     0
SMALL
USER_CHARGES

@<TRIPOS>ATOM
      1 C1         -0.0187    1.5258    0.0104 C.3       1 <0>        -0.1764
      2 C2          0.0021   -0.0041    0.0020 C.3       1 <0>         0.1193
      3 N1          0.7106   -0.4894    1.1889 N.pl3     1 <0>        -0.5849
      4 C3          2.0787   -0.6987    1.1512 C.ar      1 <0>         0.3814
      5 C4          2.9155   -0.0009    2.0376 C.ar      1 <0>        -0.1928
      6 C5          4.2848   -0.2894    2.0390 C.ar      1 <0>         0.0048
      7 C6          4.7626   -1.2210    1.1333 C.ar      1 <0>        -0.1650
      8 C7          3.8827   -1.8337    0.2600 C.ar      1 <0>         0.1580
      9 N2          2.5921   -1.5641    0.2901 N.ar      1 <0>        -0.4910
     10 C8          2.3843    1.0416    2.9196 C.2       1 <0>         0.5732
     11 O1          3.0712    2.0313    3.0836 O.2       1 <0>        -0.4817
     12 N3          1.2222    1.0015    3.5547 N.am      1 <0>        -0.5414
     13 C9          0.2988   -0.0397    3.5375 C.ar      1 <0>         0.1577
     14 C10         0.0164   -0.7404    2.3713 C.ar      1 <0>         0.3877
     15 N4         -0.9194   -1.6783    2.3720 N.ar      1 <0>        -0.4478
     16 C11        -1.5829   -2.0057    3.4741 C.ar      1 <0>         0.2230
     17 C12        -1.3148   -1.3672    4.6804 C.ar      1 <0>        -0.0698
     18 C13        -0.3650   -0.3774    4.7137 C.ar      1 <0>        -0.0142
     19 C14        -2.6210   -3.0629    3.4185 C.ar      1 <0>         0.1075
     20 C15        -2.8873   -3.7074    2.2118 C.ar      1 <0>        -0.1457
     21 C16        -3.8591   -4.6922    2.1757 C.ar      1 <0>        -0.0592
     22 C17        -4.5337   -5.0006    3.3487 C.ar      1 <0>        -0.1244
     23 C18        -4.2187   -4.3211    4.5110 C.ar      1 <0>         0.1233
     24 N5         -3.2852   -3.3914    4.5192 N.ar      1 <0>        -0.4465
     25 C19         0.8731    2.1751    4.3591 C.3       1 <0>         0.0474
     26 H1          1.0039    1.9031    0.0027 H         1 <0>         0.0664
     27 H2         -0.5459    1.8868   -0.8726 H         1 <0>         0.0881
     28 H3         -0.5289    1.8773    0.9072 H         1 <0>         0.0587
     29 H4         -1.0205   -0.3814    0.0098 H         1 <0>         0.0807
     30 H5          0.5123   -0.3556   -0.8948 H         1 <0>         0.1096
     31 H6          4.9530    0.2033    2.7298 H         1 <0>         0.1594
     32 H7          5.8139   -1.4669    1.1088 H         1 <0>         0.1616
     33 H8          4.2592   -2.5455   -0.4597 H         1 <0>         0.1802
     34 H9         -1.8446   -1.6491    5.5783 H         1 <0>         0.2042
     35 H10        -0.1424    0.1350    5.6380 H         1 <0>         0.1907
     36 H11        -2.3432   -3.4420    1.3175 H         1 <0>         0.1334
     37 H12        -4.0877   -5.2088    1.2552 H         1 <0>         0.1562
     38 H13        -5.2978   -5.7638    3.3535 H         1 <0>         0.1582
     39 H14        -4.7418   -4.5587    5.4254 H         1 <0>         0.1816
     40 H15         1.6720    2.9134    4.2903 H         1 <0>         0.1204
     41 H16        -0.0550    2.6082    3.9861 H         1 <0>         0.0824
     42 H17         0.7426    1.8768    5.3993 H         1 <0>         0.0843
     43 H18        -1.1253   -2.1390    1.5436 H         1 <0>         0.4418
@<TRIPOS>BOND
     1    1    2 1
     2    1   26 1
     3    1   27 1
     4    1   28 1
     5    2    3 1
     6    2   29 1
     7    2   30 1
     8    3   14 1
     9    3    4 1
    10    4    9 ar
    11    4    5 ar
    12    5    6 ar
    13    5   10 1
    14    6    7 ar
    15    6   31 1
    16    7    8 ar
    17    7   32 1
    18    8    9 ar
    19    8   33 1
    20   10   11 2
    21   10   12 am
    22   12   13 1
    23   12   25 1
    24   13   18 ar
    25   13   14 ar
    26   14   15 ar
    27   15   16 ar
    28   15   43 1
    29   16   17 ar
    30   16   19 1
    31   17   18 ar
    32   17   34 1
    33   18   35 1
    34   19   24 ar
    35   19   20 ar
    36   20   21 ar
    37   20   36 1
    38   21   22 ar
    39   21   37 1
    40   22   23 ar
    41   22   38 1
    42   23   24 ar
    43   23   39 1
    44   25   40 1
    45   25   41 1
    46   25   42 1
@<TRIPOS>MOLECULE
CHEMBL64233
   33    34     0     0     0
SMALL
USER_CHARGES

@<TRIPOS>ATOM
      1 C1         -0.0187    1.5258    0.0104 C.3       1 <0>        -0.1468
      2 C2          0.0021   -0.0041    0.0020 C.3       1 <0>         0.0066
      3 C3          0.7421   -0.5109    1.2415 C.3       1 <0>        -0.1475
      4 C4         -1.3789   -0.5136    0.0125 C.1       1 <0>        -0.0625
      5 C5         -2.4803   -0.9199    0.0208 C.1       1 <0>        -0.2489
      6 C6         -3.8613   -1.4294    0.0313 C.3       1 <0>         0.3196
      7 C7         -3.8010   -2.9395    0.0226 C.ar      1 <0>        -0.1281
      8 C8         -3.1613   -3.6235   -0.9854 C.ar      1 <0>        -0.0857
      9 C9         -3.1256   -5.0094   -0.9602 C.ar      1 <0>         0.0792
     10 C10        -3.7324   -5.6986    0.0765 C.ar      1 <0>        -0.0931
     11 C11        -4.3746   -5.0120    1.0885 C.ar      1 <0>        -0.1263
     12 C12        -4.4124   -3.6243    1.0669 C.ar      1 <0>         0.1844
     13 N1         -5.0566   -2.9131    2.0815 N.am      1 <0>        -0.6562
     14 C13        -5.1206   -1.5757    2.1058 C.2       1 <0>         0.7191
     15 O1         -5.7027   -1.0400    3.0292 O.2       1 <0>        -0.5527
     16 N2         -4.5702   -0.7971    1.1567 N.am      1 <0>        -0.7057
     17 F1         -2.4996   -5.6872   -1.9470 F         1 <0>        -0.1287
     18 C14        -4.5363   -0.9775   -1.2653 C.3       1 <0>         0.4480
     19 F2         -3.8363   -1.4949   -2.3604 F         1 <0>        -0.1658
     20 F3         -5.8549   -1.4443   -1.2918 F         1 <0>        -0.1662
     21 F4         -4.5350    0.4201   -1.3291 F         1 <0>        -0.1697
     22 H1          1.0039    1.9031    0.0027 H         1 <0>         0.0722
     23 H2         -0.5459    1.8868   -0.8726 H         1 <0>         0.0603
     24 H3         -0.5289    1.8773    0.9072 H         1 <0>         0.0620
     25 H4          0.5123   -0.3556   -0.8948 H         1 <0>         0.1028
     26 H5          1.7647   -0.1336    1.2338 H         1 <0>         0.0723
     27 H6          0.2319   -0.1594    2.1383 H         1 <0>         0.0625
     28 H7          0.7568   -1.6008    1.2356 H         1 <0>         0.0623
     29 H8         -2.6893   -3.0834   -1.7928 H         1 <0>         0.1569
     30 H9         -3.7035   -6.7780    0.0937 H         1 <0>         0.1519
     31 H10        -4.8467   -5.5536    1.8948 H         1 <0>         0.1513
     32 H11        -5.4768   -3.4101    2.8007 H         1 <0>         0.4327
     33 H12        -4.6398    0.1688    1.2127 H         1 <0>         0.4396
@<TRIPOS>BOND
     1    1    2 1
     2    1   22 1
     3    1   23 1
     4    1   24 1
     5    2    3 1
     6    2    4 1
     7    2   25 1
     8    3   26 1
     9    3   27 1
    10    3   28 1
    11    4    5 3
    12    5    6 1
    13    6   16 1
    14    6    7 1
    15    6   18 1
    16    7   12 ar
    17    7    8 ar
    18    8    9 ar
    19    8   29 1
    20    9   10 ar
    21    9   17 1
    22   10   11 ar
    23   10   30 1
    24   11   12 ar
    25   11   31 1
    26   12   13 1
    27   13   14 am
    28   13   32 1
    29   14   15 2
    30   14   16 am
    31   16   33 1
    32   18   19 1
    33   18   20 1
    34   18   21 1
@<TRIPOS>MOLECULE
CHEMBL212430
   37    39     0     0     0
SMALL
USER_CHARGES

@<TRIPOS>ATOM
      1 C1         -0.0120    1.0940    0.0109 C.3       1 <0>        -0.0749
      2 C2         -0.7410    1.5912   -1.2107 C.ar      1 <0>        -0.2900
      3 C3         -0.0609    1.8334   -2.3899 C.ar      1 <0>         0.1725
      4 N1         -0.7306    2.2694   -3.4457 N.ar      1 <0>        -0.5746
      5 C4         -2.0385    2.4748   -3.3844 C.ar      1 <0>         0.3154
      6 N2         -2.7250    2.2546   -2.2726 N.ar      1 <0>        -0.5995
      7 C5         -2.1173    1.8116   -1.1789 C.ar      1 <0>         0.4457
      8 O1         -2.8238    1.5821   -0.0454 O.3       1 <0>        -0.6955
      9 S1         -2.8852    3.0556   -4.8164 S.3       1 <0>         0.0376
     10 C6         -4.5824    3.0411   -4.3433 C.ar      1 <0>        -0.1067
     11 C7         -5.1799    4.1978   -3.8580 C.ar      1 <0>        -0.0562
     12 C8         -6.5103    4.1831   -3.4886 C.ar      1 <0>        -0.1327
     13 C9         -7.2479    3.0185   -3.6007 C.ar      1 <0>        -0.0975
     14 C10        -6.6563    1.8652   -4.0829 C.ar      1 <0>        -0.1319
     15 C11        -5.3279    1.8745   -4.4600 C.ar      1 <0>        -0.0555
     16 C12         1.4263    1.6043   -2.4725 C.3       1 <0>        -0.0241
     17 C13         1.6926    0.1863   -2.9079 C.ar      1 <0>        -0.1380
     18 C14         1.8191   -0.8164   -1.9621 C.ar      1 <0>         0.1350
     19 C15         2.0639   -2.1190   -2.3634 C.ar      1 <0>        -0.1707
     20 C16         2.1819   -2.4179   -3.7076 C.ar      1 <0>        -0.0700
     21 C17         2.0563   -1.4174   -4.6527 C.ar      1 <0>        -0.1717
     22 C18         1.8054   -0.1152   -4.2541 C.ar      1 <0>         0.1442
     23 F1          1.6766    0.8615   -5.1785 F         1 <0>        -0.1188
     24 F2          1.7042   -0.5244   -0.6481 F         1 <0>        -0.1180
     25 H1          0.0016    0.0041    0.0075 H         1 <0>         0.0587
     26 H2          1.0111    1.4701    0.0016 H         1 <0>         0.0454
     27 H3         -0.5212    1.4483    0.9072 H         1 <0>         0.0548
     28 H4         -4.6043    5.1074   -3.7695 H         1 <0>         0.1260
     29 H5         -6.9754    5.0818   -3.1113 H         1 <0>         0.1224
     30 H6         -8.2882    3.0097   -3.3107 H         1 <0>         0.1203
     31 H7         -7.2350    0.9574   -4.1685 H         1 <0>         0.1219
     32 H8         -4.8677    0.9747   -4.8406 H         1 <0>         0.1237
     33 H9          1.8606    2.2942   -3.1960 H         1 <0>         0.0916
     34 H10         1.8750    1.7742   -1.4938 H         1 <0>         0.0936
     35 H11         2.1630   -2.9015   -1.6256 H         1 <0>         0.1392
     36 H12         2.3729   -3.4341   -4.0196 H         1 <0>         0.1390
     37 H13         2.1494   -1.6521   -5.7028 H         1 <0>         0.1392
@<TRIPOS>BOND
     1    1   25 1
     2    1   26 1
     3    1   27 1
     4    1    2 1
     5    2    7 ar
     6    2    3 ar
     7    3   16 1
     8    3    4 ar
     9    4    5 ar
    10    5    9 1
    11    5    6 ar
    12    6    7 ar
    13    7    8 1
    14    9   10 1
    15   10   15 ar
    16   10   11 ar
    17   11   12 ar
    18   11   28 1
    19   12   13 ar
    20   12   29 1
    21   13   14 ar
    22   13   30 1
    23   14   15 ar
    24   14   31 1
    25   15   32 1
    26   16   17 1
    27   16   33 1
    28   16   34 1
    29   17   22 ar
    30   17   18 ar
    31   18   19 ar
    32   18   24 1
    33   19   20 ar
    34   19   35 1
    35   20   21 ar
    36   20   36 1
    37   21   22 ar
    38   21   37 1
    39   22   23 1
@<TRIPOS>MOLECULE
CHEMBL212430__1
   38    40     0     0     0
SMALL
USER_CHARGES

@<TRIPOS>ATOM
      1 C1          0.4015    1.2301   -0.8918 C.3       1 <0>        -0.1027
      2 C2         -0.7538    1.8174   -1.6609 C.2       1 <0>        -0.2305
      3 C3         -1.1529    3.0874   -1.4354 C.2       1 <0>         0.1552
      4 N1         -2.2025    3.5939   -2.1465 N.pl3     1 <0>        -0.5947
      5 C4         -2.8400    2.8280   -3.0727 C.2       1 <0>         0.3766
      6 N2         -2.4642    1.5863   -3.3054 N.2       1 <0>        -0.5729
      7 C5         -1.4356    1.0468   -2.6374 C.2       1 <0>         0.5167
      8 O1         -1.0907   -0.1031   -2.8638 O.2       1 <0>        -0.5046
      9 S1         -4.1917    3.5073   -3.9760 S.3       1 <0>         0.0913
     10 C6         -4.7703    2.1609   -4.9543 C.ar      1 <0>        -0.1351
     11 C7         -5.6866    1.2601   -4.4265 C.ar      1 <0>        -0.0463
     12 C8         -6.1379    0.2060   -5.1960 C.ar      1 <0>        -0.1288
     13 C9         -5.6787    0.0465   -6.4906 C.ar      1 <0>        -0.0754
     14 C10        -4.7661    0.9412   -7.0191 C.ar      1 <0>        -0.1289
     15 C11        -4.3153    2.0011   -6.2571 C.ar      1 <0>        -0.0464
     16 C12        -0.4477    3.9366   -0.4094 C.3       1 <0>        -0.0472
     17 C13         0.4021    4.9664   -1.1081 C.ar      1 <0>        -0.1637
     18 C14         1.7468    4.7217   -1.3271 C.ar      1 <0>         0.1424
     19 C15         2.5268    5.6688   -1.9692 C.ar      1 <0>        -0.1567
     20 C16         1.9631    6.8580   -2.3913 C.ar      1 <0>        -0.0558
     21 C17         0.6207    7.1036   -2.1727 C.ar      1 <0>        -0.1561
     22 C18        -0.1626    6.1554   -1.5364 C.ar      1 <0>         0.1276
     23 F1         -1.4761    6.3932   -1.3283 F         1 <0>        -0.1307
     24 F2          2.2982    3.5595   -0.9142 F         1 <0>        -0.1197
     25 H1          0.5107    0.1764   -1.1485 H         1 <0>         0.0822
     26 H2          1.3170    1.7633   -1.1479 H         1 <0>         0.0785
     27 H3          0.2123    1.3258    0.1774 H         1 <0>         0.0690
     28 H4         -2.4956    4.5053   -1.9903 H         1 <0>         0.4223
     29 H5         -6.0454    1.3839   -3.4154 H         1 <0>         0.1306
     30 H6         -6.8501   -0.4949   -4.7861 H         1 <0>         0.1317
     31 H7         -6.0332   -0.7788   -7.0903 H         1 <0>         0.1304
     32 H8         -4.4089    0.8134   -8.0302 H         1 <0>         0.1320
     33 H9         -3.6066    2.7024   -6.6721 H         1 <0>         0.1319
     34 H10        -1.1858    4.4384    0.2162 H         1 <0>         0.1073
     35 H11         0.1857    3.3040    0.2124 H         1 <0>         0.1237
     36 H12         3.5760    5.4782   -2.1398 H         1 <0>         0.1488
     37 H13         2.5722    7.5961   -2.8919 H         1 <0>         0.1494
     38 H14         0.1815    8.0336   -2.5024 H         1 <0>         0.1486
@<TRIPOS>BOND
     1    1   25 1
     2    1   26 1
     3    1   27 1
     4    1    2 1
     5    2    7 1
     6    2    3 2
     7    3   16 1
     8    3    4 1
     9    4    5 1
    10    4   28 1
    11    5    9 1
    12    5    6 2
    13    6    7 1
    14    7    8 2
    15    9   10 1
    16   10   15 ar
    17   10   11 ar
    18   11   12 ar
    19   11   29 1
    20   12   13 ar
    21   12   30 1
    22   13   14 ar
    23   13   31 1
    24   14   15 ar
    25   14   32 1
    26   15   33 1
    27   16   17 1
    28   16   34 1
    29   16   35 1
    30   17   22 ar
    31   17   18 ar
    32   18   19 ar
    33   18   24 1
    34   19   20 ar
    35   19   36 1
    36   20   21 ar
    37   20   37 1
    38   21   22 ar
    39   21   38 1
    40   22   23 1
@<TRIPOS>MOLECULE
CHEMBL212430__2
   38    40     0     0     0
SMALL
USER_CHARGES

@<TRIPOS>ATOM
      1 C1          0.2475    1.1301   -0.8151 C.3       1 <0>        -0.1002
      2 C2         -0.8577    1.7559   -1.6263 C.2       1 <0>        -0.2468
      3 C3         -1.2830    3.0248   -1.3566 C.2       1 <0>         0.1856
      4 N1         -2.2597    3.5691   -2.0777 N.2       1 <0>        -0.5159
      5 C4         -2.8373    2.9071   -3.0613 C.2       1 <0>         0.3462
      6 N2         -2.4546    1.6384   -3.3758 N.am      1 <0>        -0.6151
      7 C5         -1.4636    1.0446   -2.6769 C.2       1 <0>         0.5335
      8 O1         -1.1043   -0.0893   -2.9485 O.2       1 <0>        -0.5297
      9 S1         -4.1262    3.6768   -3.9837 S.3       1 <0>         0.0939
     10 C6         -4.1782    5.3213   -3.3532 C.ar      1 <0>        -0.1338
     11 C7         -3.3592    6.3021   -3.8982 C.ar      1 <0>        -0.0467
     12 C8         -3.4028    7.5900   -3.4019 C.ar      1 <0>        -0.1259
     13 C9         -4.2606    7.9039   -2.3635 C.ar      1 <0>        -0.0730
     14 C10        -5.0772    6.9299   -1.8186 C.ar      1 <0>        -0.1271
     15 C11        -5.0424    5.6412   -2.3137 C.ar      1 <0>        -0.0447
     16 C12        -0.6453    3.8103   -0.2397 C.3       1 <0>        -0.0318
     17 C13         0.2504    4.8736   -0.8212 C.ar      1 <0>        -0.1568
     18 C14         1.6061    4.6341   -0.9659 C.ar      1 <0>         0.1357
     19 C15         2.4282    5.6119   -1.5003 C.ar      1 <0>        -0.1669
     20 C16         1.8956    6.8266   -1.8891 C.ar      1 <0>        -0.0589
     21 C17         0.5423    7.0670   -1.7446 C.ar      1 <0>        -0.1687
     22 C18        -0.2827    6.0884   -1.2162 C.ar      1 <0>         0.1516
     23 F1         -1.6066    6.3214   -1.0807 F         1 <0>        -0.1122
     24 F2          2.1270    3.4471   -0.5855 F         1 <0>        -0.1241
     25 H1          0.3813    0.0929   -1.1226 H         1 <0>         0.0774
     26 H2          1.1743    1.6799   -0.9786 H         1 <0>         0.0797
     27 H3         -0.0138    1.1647    0.2425 H         1 <0>         0.0701
     28 H4         -2.8898    1.1645   -4.1018 H         1 <0>         0.4202
     29 H5         -2.6889    6.0575   -4.7089 H         1 <0>         0.1274
     30 H6         -2.7661    8.3529   -3.8250 H         1 <0>         0.1281
     31 H7         -4.2925    8.9119   -1.9770 H         1 <0>         0.1277
     32 H8         -5.7457    7.1783   -1.0075 H         1 <0>         0.1298
     33 H9         -5.6837    4.8821   -1.8906 H         1 <0>         0.1305
     34 H10        -1.4220    4.2798    0.3638 H         1 <0>         0.1042
     35 H11        -0.0551    3.1399    0.3851 H         1 <0>         0.1062
     36 H12         3.4860    5.4255   -1.6130 H         1 <0>         0.1440
     37 H13         2.5376    7.5886   -2.3057 H         1 <0>         0.1442
     38 H14         0.1273    8.0168   -2.0481 H         1 <0>         0.1424
@<TRIPOS>BOND
     1    1   25 1
     2    1   26 1
     3    1   27 1
     4    1    2 1
     5    2    7 1
     6    2    3 2
     7    3   16 1
     8    3    4 1
     9    4    5 2
    10    5    9 1
    11    5    6 1
    12    6   28 1
    13    6    7 am
    14    7    8 2
    15    9   10 1
    16   10   15 ar
    17   10   11 ar
    18   11   12 ar
    19   11   29 1
    20   12   13 ar
    21   12   30 1
    22   13   14 ar
    23   13   31 1
    24   14   15 ar
    25   14   32 1
    26   15   33 1
    27   16   17 1
    28   16   34 1
    29   16   35 1
    30   17   22 ar
    31   17   18 ar
    32   18   19 ar
    33   18   24 1
    34   19   20 ar
    35   19   36 1
    36   20   21 ar
    37   20   37 1
    38   21   22 ar
    39   21   38 1
    40   22   23 1
@<TRIPOS>MOLECULE
CHEMBL103808
   48    51     0     0     0
SMALL
USER_CHARGES

@<TRIPOS>ATOM
      1 C1         -0.0187    1.5258    0.0104 C.3       1 <0>        -0.1706
      2 C2          0.0021   -0.0041    0.0020 C.3       1 <0>         0.1353
      3 N1          0.7106   -0.4894    1.1889 N.pl3     1 <0>        -0.5772
      4 C3          2.0889   -0.7000    1.1500 C.ar      1 <0>         0.3816
      5 C4          2.9401    0.0079    1.9951 C.ar      1 <0>         0.0965
      6 C5          4.3025   -0.2729    1.9669 C.ar      1 <0>        -0.0722
      7 C6          4.7668   -1.2270    1.0728 C.ar      1 <0>        -0.1359
      8 C7          3.8684   -1.8665    0.2413 C.ar      1 <0>         0.1843
      9 N2          2.5782   -1.5926    0.3004 N.ar      1 <0>        -0.4689
     10 Cl1         4.4430   -3.0451   -0.8965 Cl        1 <0>        -0.0166
     11 N3          2.4733    1.0232    2.8270 N.am      1 <0>        -0.5370
     12 C8          1.3456    1.0257    3.5224 C.2       1 <0>         0.5772
     13 O1          1.1189    2.0028    4.2094 O.2       1 <0>        -0.5166
     14 C9          0.3474   -0.0481    3.5345 C.ar      1 <0>        -0.1938
     15 C10         0.0203   -0.7384    2.3627 C.ar      1 <0>         0.4114
     16 N4         -0.9437   -1.6476    2.3792 N.ar      1 <0>        -0.4899
     17 C11        -1.5843   -1.9626    3.4880 C.ar      1 <0>         0.1641
     18 C12        -1.2762   -1.3540    4.6909 C.ar      1 <0>        -0.1359
     19 C13        -0.3038   -0.3876    4.7255 C.ar      1 <0>         0.0008
     20 C14        -1.9997   -1.7523    5.9515 C.3       1 <0>        -0.4123
     21 S1         -1.1054   -3.1083    6.7591 S.o       1 <0>         1.3305
     22 O2         -1.2241   -4.2873    5.9748 O.2       1 <0>        -0.8353
     23 C15        -2.0638   -3.4544    8.1966 C.ar      1 <0>        -0.4663
     24 C16        -1.7989   -2.7910    9.3801 C.ar      1 <0>        -0.0422
     25 C17        -2.5508   -3.0625   10.5079 C.ar      1 <0>        -0.1364
     26 C18        -3.5678   -3.9970   10.4520 C.ar      1 <0>        -0.0814
     27 C19        -3.8333   -4.6597    9.2683 C.ar      1 <0>        -0.1350
     28 C20        -3.0843   -4.3851    8.1394 C.ar      1 <0>        -0.0538
     29 C21         3.3189    2.2136    2.9457 C.3       1 <0>         0.0640
     30 H1          1.0039    1.9031    0.0027 H         1 <0>         0.0546
     31 H2         -0.5459    1.8868   -0.8726 H         1 <0>         0.0737
     32 H3         -0.5289    1.8773    0.9072 H         1 <0>         0.0550
     33 H4         -1.0205   -0.3814    0.0098 H         1 <0>         0.0855
     34 H5          0.5123   -0.3556   -0.8948 H         1 <0>         0.0853
     35 H6          4.9847    0.2411    2.6277 H         1 <0>         0.1603
     36 H7          5.8188   -1.4671    1.0279 H         1 <0>         0.1590
     37 H8         -2.3634   -2.7098    3.4560 H         1 <0>         0.1654
     38 H9         -0.0517    0.1043    5.6534 H         1 <0>         0.1571
     39 H10        -2.0508   -0.8980    6.6264 H         1 <0>         0.1335
     40 H11        -3.0091   -2.0800    5.7030 H         1 <0>         0.1057
     41 H12        -1.0043   -2.0609    9.4237 H         1 <0>         0.1379
     42 H13        -2.3433   -2.5448   11.4327 H         1 <0>         0.1310
     43 H14        -4.1548   -4.2097   11.3333 H         1 <0>         0.1274
     44 H15        -4.6277   -5.3901    9.2247 H         1 <0>         0.1262
     45 H16        -3.2941   -4.9001    7.2136 H         1 <0>         0.1270
     46 H17         3.0390    2.9361    2.1790 H         1 <0>         0.0692
     47 H18         3.1832    2.6588    3.9313 H         1 <0>         0.0965
     48 H19         4.3637    1.9317    2.8151 H         1 <0>         0.0814
@<TRIPOS>BOND
     1    1    2 1
     2    1   30 1
     3    1   31 1
     4    1   32 1
     5    2    3 1
     6    2   33 1
     7    2   34 1
     8    3   15 1
     9    3    4 1
    10    4    9 ar
    11    4    5 ar
    12    5    6 ar
    13    5   11 1
    14    6    7 ar
    15    6   35 1
    16    7    8 ar
    17    7   36 1
    18    8    9 ar
    19    8   10 1
    20   11   12 am
    21   11   29 1
    22   12   13 2
    23   12   14 1
    24   14   19 ar
    25   14   15 ar
    26   15   16 ar
    27   16   17 ar
    28   17   18 ar
    29   17   37 1
    30   18   19 ar
    31   18   20 1
    32   19   38 1
    33   20   21 1
    34   20   39 1
    35   20   40 1
    36   21   22 2
    37   21   23 1
    38   23   28 ar
    39   23   24 ar
    40   24   25 ar
    41   24   41 1
    42   25   26 ar
    43   25   42 1
    44   26   27 ar
    45   26   43 1
    46   27   28 ar
    47   27   44 1
    48   28   45 1
    49   29   46 1
    50   29   47 1
    51   29   48 1
@<TRIPOS>MOLECULE
CHEMBL103808__1
   48    51     0     0     0
SMALL
USER_CHARGES

@<TRIPOS>ATOM
      1 C1         -0.0187    1.5258    0.0104 C.3       1 <0>        -0.1718
      2 C2          0.0021   -0.0041    0.0020 C.3       1 <0>         0.1362
      3 N1          0.7106   -0.4894    1.1889 N.pl3     1 <0>        -0.5766
      4 C3          2.0889   -0.7000    1.1500 C.ar      1 <0>         0.3808
      5 C4          2.9401    0.0079    1.9951 C.ar      1 <0>         0.0974
      6 C5          4.3025   -0.2729    1.9669 C.ar      1 <0>        -0.0730
      7 C6          4.7668   -1.2270    1.0728 C.ar      1 <0>        -0.1352
      8 C7          3.8684   -1.8665    0.2413 C.ar      1 <0>         0.1837
      9 N2          2.5782   -1.5926    0.3004 N.ar      1 <0>        -0.4676
     10 Cl1         4.4430   -3.0451   -0.8965 Cl        1 <0>        -0.0163
     11 N3          2.4733    1.0232    2.8270 N.am      1 <0>        -0.5373
     12 C8          1.3456    1.0257    3.5224 C.2       1 <0>         0.5759
     13 O1          1.1189    2.0028    4.2094 O.2       1 <0>        -0.5172
     14 C9          0.3474   -0.0481    3.5345 C.ar      1 <0>        -0.1909
     15 C10         0.0203   -0.7384    2.3627 C.ar      1 <0>         0.4115
     16 N4         -0.9437   -1.6476    2.3792 N.ar      1 <0>        -0.4892
     17 C11        -1.5843   -1.9626    3.4880 C.ar      1 <0>         0.1581
     18 C12        -1.2762   -1.3540    4.6909 C.ar      1 <0>        -0.1368
     19 C13        -0.3038   -0.3876    4.7255 C.ar      1 <0>         0.0049
     20 C14        -1.9997   -1.7523    5.9515 C.3       1 <0>        -0.4128
     21 S1         -1.1054   -3.1083    6.7591 S.o       1 <0>         1.3330
     22 O2          0.1259   -2.6222    7.2756 O.2       1 <0>        -0.8373
     23 C15        -2.0638   -3.4544    8.1966 C.ar      1 <0>        -0.4665
     24 C16        -1.7989   -2.7910    9.3801 C.ar      1 <0>        -0.0541
     25 C17        -2.5507   -3.0625   10.5079 C.ar      1 <0>        -0.1351
     26 C18        -3.5678   -3.9970   10.4520 C.ar      1 <0>        -0.0814
     27 C19        -3.8333   -4.6597    9.2683 C.ar      1 <0>        -0.1364
     28 C20        -3.0843   -4.3851    8.1394 C.ar      1 <0>        -0.0418
     29 C21         3.3189    2.2136    2.9457 C.3       1 <0>         0.0639
     30 H1          1.0039    1.9031    0.0027 H         1 <0>         0.0542
     31 H2         -0.5459    1.8868   -0.8726 H         1 <0>         0.0740
     32 H3         -0.5289    1.8773    0.9072 H         1 <0>         0.0545
     33 H4         -1.0205   -0.3814    0.0098 H         1 <0>         0.0867
     34 H5          0.5123   -0.3556   -0.8948 H         1 <0>         0.0857
     35 H6          4.9847    0.2411    2.6277 H         1 <0>         0.1594
     36 H7          5.8188   -1.4671    1.0279 H         1 <0>         0.1590
     37 H8         -2.3634   -2.7098    3.4560 H         1 <0>         0.1768
     38 H9         -0.0517    0.1043    5.6534 H         1 <0>         0.1463
     39 H10        -2.0508   -0.8980    6.6264 H         1 <0>         0.1036
     40 H11        -3.0091   -2.0800    5.7030 H         1 <0>         0.1355
     41 H12        -1.0043   -2.0609    9.4237 H         1 <0>         0.1261
     42 H13        -2.3433   -2.5448   11.4327 H         1 <0>         0.1259
     43 H14        -4.1548   -4.2097   11.3333 H         1 <0>         0.1274
     44 H15        -4.6277   -5.3901    9.2248 H         1 <0>         0.1312
     45 H16        -3.2941   -4.9001    7.2136 H         1 <0>         0.1388
     46 H17         3.0390    2.9361    2.1790 H         1 <0>         0.0700
     47 H18         3.1832    2.6588    3.9313 H         1 <0>         0.0953
     48 H19         4.3637    1.9317    2.8151 H         1 <0>         0.0817
@<TRIPOS>BOND
     1    1    2 1
     2    1   30 1
     3    1   31 1
     4    1   32 1
     5    2    3 1
     6    2   33 1
     7    2   34 1
     8    3   15 1
     9    3    4 1
    10    4    9 ar
    11    4    5 ar
    12    5    6 ar
    13    5   11 1
    14    6    7 ar
    15    6   35 1
    16    7    8 ar
    17    7   36 1
    18    8    9 ar
    19    8   10 1
    20   11   12 am
    21   11   29 1
    22   12   13 2
    23   12   14 1
    24   14   19 ar
    25   14   15 ar
    26   15   16 ar
    27   16   17 ar
    28   17   18 ar
    29   17   37 1
    30   18   19 ar
    31   18   20 1
    32   19   38 1
    33   20   21 1
    34   20   39 1
    35   20   40 1
    36   21   22 2
    37   21   23 1
    38   23   28 ar
    39   23   24 ar
    40   24   25 ar
    41   24   41 1
    42   25   26 ar
    43   25   42 1
    44   26   27 ar
    45   26   43 1
    46   27   28 ar
    47   27   44 1
    48   28   45 1
    49   29   46 1
    50   29   47 1
    51   29   48 1
@<TRIPOS>MOLECULE
CHEMBL84621
   45    46     0     0     0
SMALL
USER_CHARGES

@<TRIPOS>ATOM
      1 C1         -0.0187    1.5258    0.0104 C.3       1 <0>        -0.1486
      2 C2          0.0021   -0.0041    0.0020 C.3       1 <0>        -0.0700
      3 C3          0.7309   -0.5033    1.2229 C.2       1 <0>        -0.1278
      4 C4          2.1292   -0.6125    1.2086 C.2       1 <0>        -0.1439
      5 C5          2.7754   -1.0669    2.3251 C.2       1 <0>         0.1090
      6 C6          2.0184   -1.4151    3.4655 C.2       1 <0>         0.5133
      7 N1          0.6770   -1.2973    3.4432 N.am      1 <0>        -0.5928
      8 C7          0.0370   -0.8403    2.3334 C.2       1 <0>         0.0839
      9 C8         -1.4647   -0.7135    2.3396 C.3       1 <0>        -0.1183
     10 O1          2.5794   -1.8227    4.4701 O.2       1 <0>        -0.5518
     11 N2          4.1707   -1.1860    2.3373 N.pl3     1 <0>        -0.7205
     12 C9          4.8538   -1.6737    3.5380 C.3       1 <0>         0.1966
     13 C10         6.3401   -1.7073    3.2917 C.ar      1 <0>        -0.1832
     14 C11         7.1665   -0.7513    3.8568 C.ar      1 <0>        -0.0220
     15 C12         8.5291   -0.8208    3.6030 C.ar      1 <0>        -0.1773
     16 C13         9.0160   -1.8337    2.8006 C.ar      1 <0>         0.1721
     17 N3          8.2031   -2.7305    2.2756 N.ar      1 <0>        -0.5383
     18 C14         6.8997   -2.7011    2.4994 C.ar      1 <0>         0.3341
     19 O2          6.1013   -3.6474    1.9447 O.3       1 <0>        -0.2991
     20 C15         6.7372   -4.6425    1.1401 C.3       1 <0>         0.0398
     21 C16        10.4946   -1.9155    2.5206 C.3       1 <0>        -0.1102
     22 C17         9.4673    0.1985    4.1963 C.3       1 <0>        -0.1074
     23 H1          1.0039    1.9031    0.0027 H         1 <0>         0.0557
     24 H2         -0.5459    1.8868   -0.8726 H         1 <0>         0.0573
     25 H3         -0.5289    1.8773    0.9072 H         1 <0>         0.0544
     26 H4         -1.0205   -0.3814    0.0098 H         1 <0>         0.0737
     27 H5          0.5123   -0.3556   -0.8948 H         1 <0>         0.0727
     28 H6          2.6892   -0.3413    0.3258 H         1 <0>         0.1275
     29 H7         -1.9096   -1.6476    1.9965 H         1 <0>         0.0808
     30 H8         -1.8070   -0.4982    3.3518 H         1 <0>         0.0706
     31 H9         -1.7636    0.0970    1.6749 H         1 <0>         0.0897
     32 H10         0.1616   -1.5377    4.2290 H         1 <0>         0.4147
     33 H11         4.6848   -0.9455    1.5507 H         1 <0>         0.4018
     34 H12         4.6390   -1.0079    4.3739 H         1 <0>         0.0743
     35 H13         4.5017   -2.6780    3.7737 H         1 <0>         0.0789
     36 H14         6.7600    0.0310    4.4806 H         1 <0>         0.1424
     37 H15         7.2468   -4.1629    0.3044 H         1 <0>         0.0584
     38 H16         7.4628   -5.1883    1.7432 H         1 <0>         0.0585
     39 H17         5.9871   -5.3354    0.7588 H         1 <0>         0.0961
     40 H18        10.9748   -2.5315    3.2809 H         1 <0>         0.0823
     41 H19        10.6543   -2.3603    1.5384 H         1 <0>         0.0773
     42 H20        10.9240   -0.9138    2.5400 H         1 <0>         0.0826
     43 H21         9.8173   -0.1517    5.1674 H         1 <0>         0.0722
     44 H22        10.3198    0.3380    3.5315 H         1 <0>         0.0729
     45 H23         8.9434    1.1464    4.3191 H         1 <0>         0.0674
@<TRIPOS>BOND
     1    1    2 1
     2    1   23 1
     3    1   24 1
     4    1   25 1
     5    2   26 1
     6    2   27 1
     7    2    3 1
     8    3    8 2
     9    3    4 1
    10    4   28 1
    11    4    5 2
    12    5    6 1
    13    5   11 1
    14    6   10 2
    15    6    7 am
    16    7   32 1
    17    7    8 1
    18    8    9 1
    19    9   29 1
    20    9   30 1
    21    9   31 1
    22   11   12 1
    23   11   33 1
    24   12   13 1
    25   12   34 1
    26   12   35 1
    27   13   18 ar
    28   13   14 ar
    29   14   15 ar
    30   14   36 1
    31   15   16 ar
    32   15   22 1
    33   16   17 ar
    34   16   21 1
    35   17   18 ar
    36   18   19 1
    37   19   20 1
    38   20   37 1
    39   20   38 1
    40   20   39 1
    41   21   40 1
    42   21   41 1
    43   21   42 1
    44   22   43 1
    45   22   44 1
    46   22   45 1
@<TRIPOS>MOLECULE
CHEMBL125084
   49    51     0     0     0
SMALL
USER_CHARGES

@<TRIPOS>ATOM
      1 C1         -0.0184    1.5028    0.0103 C.3       1 <0>        -0.0733
      2 C2          0.0021   -0.0041    0.0020 C.2       1 <0>         0.0746
      3 C3          0.0081   -0.8157   -1.1153 C.2       1 <0>        -0.0867
      4 C4         -0.0010   -0.5757   -2.5014 C.2       1 <0>         0.0308
      5 C5          0.0099   -1.6364   -3.3540 C.2       1 <0>        -0.2100
      6 C6          0.0299   -2.9465   -2.8493 C.2       1 <0>         0.2201
      7 N1          0.0380   -3.1768   -1.5637 N.2       1 <0>        -0.2644
      8 N2          0.0278   -2.1180   -0.6503 N.pl3     1 <0>        -0.2665
      9 C7          0.0330   -2.0543    0.6936 C.2       1 <0>         0.2555
     10 N3          0.0235   -0.7987    1.0712 N.2       1 <0>        -0.4541
     11 C8          0.0529   -3.2419    1.6211 C.3       1 <0>        -0.0359
     12 C9          1.5020   -3.6247    1.9285 C.3       1 <0>        -0.1116
     13 C10         1.5222   -4.8304    2.8701 C.3       1 <0>        -0.1175
     14 C11         2.9713   -5.2132    3.1776 C.3       1 <0>        -0.1193
     15 C12         2.9915   -6.4189    4.1192 C.3       1 <0>        -0.1162
     16 C13         4.4405   -6.8018    4.4266 C.3       1 <0>        -0.1458
     17 C14         4.4607   -8.0075    5.3683 C.3       1 <0>         0.1467
     18 C15         5.8821   -8.3084    5.7687 C.ar      1 <0>        -0.1166
     19 C16         6.7102   -9.0039    4.9077 C.ar      1 <0>        -0.1138
     20 C17         8.0140   -9.2799    5.2750 C.ar      1 <0>        -0.1165
     21 C18         8.4897   -8.8601    6.5031 C.ar      1 <0>        -0.1206
     22 C19         7.6618   -8.1638    7.3637 C.ar      1 <0>        -0.1169
     23 C20         6.3594   -7.8840    6.9947 C.ar      1 <0>        -0.1113
     24 O1          3.9033   -9.1419    4.7016 O.3       1 <0>        -0.5530
     25 Cl1         0.0436   -4.2851   -3.9546 Cl        1 <0>         0.0238
     26 H1          1.0042    1.8801    0.0026 H         1 <0>         0.0793
     27 H2         -0.5455    1.8639   -0.8728 H         1 <0>         0.0754
     28 H3         -0.5286    1.8543    0.9071 H         1 <0>         0.0814
     29 H4         -0.0167    0.4345   -2.8830 H         1 <0>         0.1655
     30 H5          0.0028   -1.4701   -4.4211 H         1 <0>         0.1600
     31 H6         -0.4602   -2.9873    2.5484 H         1 <0>         0.1008
     32 H7         -0.4520   -4.0827    1.1456 H         1 <0>         0.0877
     33 H8          2.0151   -3.8793    1.0011 H         1 <0>         0.0609
     34 H9          2.0069   -2.7838    2.4040 H         1 <0>         0.0697
     35 H10         1.0091   -4.5758    3.7975 H         1 <0>         0.0667
     36 H11         1.0173   -5.6713    2.3946 H         1 <0>         0.0650
     37 H12         3.4844   -5.4678    2.2502 H         1 <0>         0.0599
     38 H13         3.4761   -4.3723    3.6531 H         1 <0>         0.0615
     39 H14         2.4784   -6.1643    5.0466 H         1 <0>         0.0632
     40 H15         2.4866   -7.2598    3.6437 H         1 <0>         0.0698
     41 H16         4.9536   -7.0564    3.4993 H         1 <0>         0.0664
     42 H17         4.9454   -5.9609    4.9022 H         1 <0>         0.0731
     43 H18         3.8723   -7.7835    6.2580 H         1 <0>         0.1069
     44 H19         6.3385   -9.3319    3.9482 H         1 <0>         0.1189
     45 H20         8.6608   -9.8239    4.6026 H         1 <0>         0.1233
     46 H21         9.5081   -9.0763    6.7903 H         1 <0>         0.1229
     47 H22         8.0334   -7.8360    8.3234 H         1 <0>         0.1239
     48 H23         5.7137   -7.3368    7.6655 H         1 <0>         0.1233
     49 H24         4.3776   -9.3987    3.8990 H         1 <0>         0.3729
@<TRIPOS>BOND
     1    1    2 1
     2    1   26 1
     3    1   27 1
     4    1   28 1
     5    2   10 1
     6    2    3 2
     7    3    8 1
     8    3    4 1
     9    4    5 2
    10    4   29 1
    11    5    6 1
    12    5   30 1
    13    6    7 2
    14    6   25 1
    15    7    8 1
    16    8    9 1
    17    9   10 2
    18    9   11 1
    19   11   12 1
    20   11   31 1
    21   11   32 1
    22   12   13 1
    23   12   33 1
    24   12   34 1
    25   13   14 1
    26   13   35 1
    27   13   36 1
    28   14   15 1
    29   14   37 1
    30   14   38 1
    31   15   16 1
    32   15   39 1
    33   15   40 1
    34   16   17 1
    35   16   41 1
    36   16   42 1
    37   17   18 1
    38   17   24 1
    39   17   43 1
    40   18   23 ar
    41   18   19 ar
    42   19   20 ar
    43   19   44 1
    44   20   21 ar
    45   20   45 1
    46   21   22 ar
    47   21   46 1
    48   22   23 ar
    49   22   47 1
    50   23   48 1
    51   24   49 1
@<TRIPOS>MOLECULE
CHEMBL125084__1
   49    51     0     0     0
SMALL
USER_CHARGES

@<TRIPOS>ATOM
      1 C1         -0.0184    1.5028    0.0103 C.3       1 <0>        -0.0733
      2 C2          0.0021   -0.0041    0.0020 C.2       1 <0>         0.0747
      3 C3          0.0081   -0.8157   -1.1153 C.2       1 <0>        -0.0867
      4 C4         -0.0010   -0.5757   -2.5014 C.2       1 <0>         0.0309
      5 C5          0.0099   -1.6364   -3.3540 C.2       1 <0>        -0.2101
      6 C6          0.0299   -2.9465   -2.8493 C.2       1 <0>         0.2201
      7 N1          0.0380   -3.1768   -1.5637 N.2       1 <0>        -0.2645
      8 N2          0.0278   -2.1180   -0.6503 N.pl3     1 <0>        -0.2665
      9 C7          0.0330   -2.0543    0.6936 C.2       1 <0>         0.2555
     10 N3          0.0235   -0.7987    1.0712 N.2       1 <0>        -0.4541
     11 C8          0.0529   -3.2419    1.6211 C.3       1 <0>        -0.0359
     12 C9          1.5020   -3.6247    1.9285 C.3       1 <0>        -0.1116
     13 C10         1.5222   -4.8304    2.8701 C.3       1 <0>        -0.1175
     14 C11         2.9713   -5.2132    3.1776 C.3       1 <0>        -0.1193
     15 C12         2.9915   -6.4189    4.1192 C.3       1 <0>        -0.1162
     16 C13         4.4405   -6.8018    4.4266 C.3       1 <0>        -0.1455
     17 C14         4.4607   -8.0075    5.3683 C.3       1 <0>         0.1468
     18 C15         5.8832   -8.4608    5.5735 C.ar      1 <0>        -0.1166
     19 C16         6.6656   -7.8639    6.5443 C.ar      1 <0>        -0.1137
     20 C17         7.9704   -8.2797    6.7325 C.ar      1 <0>        -0.1162
     21 C18         8.4927   -9.2928    5.9503 C.ar      1 <0>        -0.1210
     22 C19         7.7100   -9.8904    4.9802 C.ar      1 <0>        -0.1169
     23 C20         6.4038   -9.4774    4.7948 C.ar      1 <0>        -0.1123
     24 O1          3.8920   -7.6389    6.6264 O.3       1 <0>        -0.5531
     25 Cl1         0.0436   -4.2851   -3.9546 Cl        1 <0>         0.0237
     26 H1          1.0042    1.8801    0.0026 H         1 <0>         0.0794
     27 H2         -0.5455    1.8639   -0.8728 H         1 <0>         0.0754
     28 H3         -0.5286    1.8543    0.9071 H         1 <0>         0.0815
     29 H4         -0.0167    0.4345   -2.8830 H         1 <0>         0.1656
     30 H5          0.0028   -1.4701   -4.4211 H         1 <0>         0.1600
     31 H6         -0.4602   -2.9873    2.5484 H         1 <0>         0.1009
     32 H7         -0.4520   -4.0827    1.1456 H         1 <0>         0.0876
     33 H8          2.0151   -3.8793    1.0011 H         1 <0>         0.0608
     34 H9          2.0069   -2.7838    2.4040 H         1 <0>         0.0697
     35 H10         1.0091   -4.5758    3.7975 H         1 <0>         0.0672
     36 H11         1.0173   -5.6713    2.3946 H         1 <0>         0.0645
     37 H12         3.4844   -5.4678    2.2502 H         1 <0>         0.0598
     38 H13         3.4761   -4.3723    3.6531 H         1 <0>         0.0617
     39 H14         2.4784   -6.1643    5.0466 H         1 <0>         0.0705
     40 H15         2.4866   -7.2598    3.6437 H         1 <0>         0.0625
     41 H16         4.9536   -7.0564    3.4993 H         1 <0>         0.0727
     42 H17         4.9454   -5.9609    4.9022 H         1 <0>         0.0670
     43 H18         3.8800   -8.8197    4.9311 H         1 <0>         0.1071
     44 H19         6.2576   -7.0724    7.1554 H         1 <0>         0.1196
     45 H20         8.5819   -7.8129    7.4905 H         1 <0>         0.1235
     46 H21         9.5123   -9.6172    6.0969 H         1 <0>         0.1228
     47 H22         8.1181  -10.6816    4.3688 H         1 <0>         0.1237
     48 H23         5.7911   -9.9468    4.0394 H         1 <0>         0.1229
     49 H24         4.3590   -6.9198    7.0735 H         1 <0>         0.3731
@<TRIPOS>BOND
     1    1    2 1
     2    1   26 1
     3    1   27 1
     4    1   28 1
     5    2   10 1
     6    2    3 2
     7    3    8 1
     8    3    4 1
     9    4    5 2
    10    4   29 1
    11    5    6 1
    12    5   30 1
    13    6    7 2
    14    6   25 1
    15    7    8 1
    16    8    9 1
    17    9   10 2
    18    9   11 1
    19   11   12 1
    20   11   31 1
    21   11   32 1
    22   12   13 1
    23   12   33 1
    24   12   34 1
    25   13   14 1
    26   13   35 1
    27   13   36 1
    28   14   15 1
    29   14   37 1
    30   14   38 1
    31   15   16 1
    32   15   39 1
    33   15   40 1
    34   16   17 1
    35   16   41 1
    36   16   42 1
    37   17   18 1
    38   17   24 1
    39   17   43 1
    40   18   23 ar
    41   18   19 ar
    42   19   20 ar
    43   19   44 1
    44   20   21 ar
    45   20   45 1
    46   21   22 ar
    47   21   46 1
    48   22   23 ar
    49   22   47 1
    50   23   48 1
    51   24   49 1
@<TRIPOS>MOLECULE
CHEMBL358292
   44    48     0     0     0
SMALL
USER_CHARGES

@<TRIPOS>ATOM
      1 C1         -0.0167    1.3781    0.0096 C.ar      1 <0>        -0.1178
      2 C2          1.1709    2.0855    0.0021 C.ar      1 <0>        -0.1175
      3 C3          2.3773    1.4107   -0.0130 C.ar      1 <0>        -0.1099
      4 C4          2.3960    0.0285   -0.0201 C.ar      1 <0>        -0.0837
      5 C5          1.2084   -0.6789   -0.0117 C.ar      1 <0>        -0.1119
      6 C6          0.0021   -0.0041    0.0020 C.ar      1 <0>        -0.1167
      7 C7          3.7112   -0.7071   -0.0376 C.3       1 <0>        -0.0413
      8 C8          4.1644   -0.9594    1.3773 C.ar      1 <0>        -0.0419
      9 C9          5.0386   -0.0848    2.0075 C.ar      1 <0>        -0.1512
     10 C10         5.4323   -0.3420    3.3045 C.ar      1 <0>         0.1138
     11 N1          4.9755   -1.3958    3.9541 N.ar      1 <0>        -0.4708
     12 C11         4.1327   -2.2527    3.3955 C.ar      1 <0>         0.3645
     13 C12         3.7106   -2.0707    2.0806 C.ar      1 <0>         0.0939
     14 N2          2.8896   -2.9927    1.4367 N.am      1 <0>        -0.6429
     15 C13         1.8543   -3.6332    1.9581 C.2       1 <0>         0.5811
     16 O1          1.2437   -4.3898    1.2282 O.2       1 <0>        -0.5250
     17 C14         1.3818   -3.5082    3.3400 C.ar      1 <0>        -0.1959
     18 C15         0.0089   -3.4959    3.6131 C.ar      1 <0>        -0.0029
     19 C16        -0.3988   -3.4164    4.9332 C.ar      1 <0>        -0.1891
     20 C17         0.5519   -3.3577    5.9362 C.ar      1 <0>         0.1478
     21 N3          1.8405   -3.3560    5.6564 N.ar      1 <0>        -0.4946
     22 C18         2.2845   -3.4060    4.4089 C.ar      1 <0>         0.4143
     23 N4          3.6510   -3.3193    4.1549 N.pl3     1 <0>        -0.5554
     24 C19         4.5740   -4.3268    4.6833 C.3       1 <0>         0.1034
     25 C20         3.9651   -5.5717    5.3318 C.3       1 <0>        -0.1834
     26 C21         4.6320   -4.5044    6.2019 C.3       1 <0>        -0.1801
     27 H1         -0.9591    1.9053    0.0259 H         1 <0>         0.1229
     28 H2          1.1563    3.1654    0.0076 H         1 <0>         0.1241
     29 H3          3.3051    1.9634   -0.0196 H         1 <0>         0.1236
     30 H4          1.2231   -1.7588   -0.0176 H         1 <0>         0.1175
     31 H5         -0.9258   -0.5567    0.0082 H         1 <0>         0.1224
     32 H6          3.5884   -1.6586   -0.5549 H         1 <0>         0.0838
     33 H7          4.4573   -0.1052   -0.5563 H         1 <0>         0.0976
     34 H8          5.4071    0.7874    1.4880 H         1 <0>         0.1466
     35 H9          6.1230    0.3282    3.7947 H         1 <0>         0.1671
     36 H10         3.0976   -3.1860    0.5092 H         1 <0>         0.4103
     37 H11        -0.7147   -3.5469    2.8129 H         1 <0>         0.1485
     38 H12        -1.4505   -3.4008    5.1783 H         1 <0>         0.1491
     39 H13         0.2331   -3.3119    6.9671 H         1 <0>         0.1680
     40 H14         5.5023   -4.4522    4.1261 H         1 <0>         0.1279
     41 H15         2.8779   -5.6410    5.3653 H         1 <0>         0.0915
     42 H16         4.4929   -6.5164    5.2012 H         1 <0>         0.1034
     43 H17         5.5985   -4.7469    6.6436 H         1 <0>         0.0971
     44 H18         3.9835   -3.8716    6.8078 H         1 <0>         0.1119
@<TRIPOS>BOND
     1    1    6 ar
     2    1    2 ar
     3    1   27 1
     4    2    3 ar
     5    2   28 1
     6    3    4 ar
     7    3   29 1
     8    4    5 ar
     9    4    7 1
    10    5    6 ar
    11    5   30 1
    12    6   31 1
    13    7    8 1
    14    7   32 1
    15    7   33 1
    16    8   13 ar
    17    8    9 ar
    18    9   10 ar
    19    9   34 1
    20   10   11 ar
    21   10   35 1
    22   11   12 ar
    23   12   23 1
    24   12   13 ar
    25   13   14 1
    26   14   15 am
    27   14   36 1
    28   15   16 2
    29   15   17 1
    30   17   22 ar
    31   17   18 ar
    32   18   19 ar
    33   18   37 1
    34   19   20 ar
    35   19   38 1
    36   20   21 ar
    37   20   39 1
    38   21   22 ar
    39   22   23 1
    40   23   24 1
    41   24   26 1
    42   24   25 1
    43   24   40 1
    44   25   26 1
    45   25   41 1
    46   25   42 1
    47   26   43 1
    48   26   44 1
@<TRIPOS>MOLECULE
CHEMBL314884
   39    43     0     0     0
SMALL
USER_CHARGES

@<TRIPOS>ATOM
      1 C1         -0.1535    1.1561   -0.0639 C.ar      1 <0>        -0.1170
      2 C2          0.9861    1.9405   -0.0970 C.ar      1 <0>        -0.0824
      3 C3          2.2384    1.3502   -0.1011 C.ar      1 <0>        -0.0849
      4 C4          2.3536   -0.0207   -0.0712 C.ar      1 <0>        -0.0516
      5 C5          1.2085   -0.8213   -0.0196 C.ar      1 <0>        -0.1467
      6 C6         -0.0503   -0.2189   -0.0254 C.ar      1 <0>        -0.0463
      7 C7          1.6362   -2.2325    0.0566 C.2       1 <0>         0.6003
      8 O1          0.9008   -3.1927   -0.0651 O.2       1 <0>        -0.5018
      9 N1          2.9608   -2.2969    0.2803 N.am      1 <0>        -0.6239
     10 C8          3.5215   -0.9647   -0.0934 C.3       1 <0>         0.2581
     11 S1          4.6235   -0.6610    1.3480 S.3       1 <0>        -0.2484
     12 C9          4.8516   -2.4144    1.8733 C.3       1 <0>        -0.0821
     13 C10         4.0444   -3.1599    0.7738 C.3       1 <0>         0.1290
     14 C11         4.2441   -0.9723   -1.4158 C.ar      1 <0>        -0.0782
     15 C12         5.5439   -0.5105   -1.4928 C.ar      1 <0>        -0.0957
     16 C13         6.2075   -0.5171   -2.7051 C.ar      1 <0>        -0.1189
     17 C14         5.5698   -0.9857   -3.8375 C.ar      1 <0>        -0.0937
     18 C15         4.2671   -1.4485   -3.7624 C.ar      1 <0>        -0.0970
     19 C16         3.6053   -1.4474   -2.5485 C.ar      1 <0>        -0.0648
     20 C17         2.2091   -2.0044   -2.7266 C.3       1 <0>        -0.0951
     21 C18         1.9407   -1.9439   -4.2453 C.3       1 <0>        -0.1176
     22 C19         3.3599   -2.0041   -4.8392 C.3       1 <0>        -0.0822
     23 H1         -1.1276    1.6225   -0.0639 H         1 <0>         0.1388
     24 H2          0.8983    3.0167   -0.1199 H         1 <0>         0.1382
     25 H3          3.1253    1.9659   -0.1282 H         1 <0>         0.1322
     26 H4         -0.9418   -0.8280   -0.0004 H         1 <0>         0.1371
     27 H5          5.9037   -2.6981    1.8485 H         1 <0>         0.1210
     28 H6          4.4231   -2.5875    2.8605 H         1 <0>         0.1084
     29 H7          3.6192   -4.0721    1.1922 H         1 <0>         0.1059
     30 H8          4.7081   -3.4162   -0.0520 H         1 <0>         0.0901
     31 H9          6.0407   -0.1443   -0.6065 H         1 <0>         0.1438
     32 H10         7.2235   -0.1561   -2.7671 H         1 <0>         0.1306
     33 H11         6.0891   -0.9906   -4.7844 H         1 <0>         0.1241
     34 H12         2.1657   -3.0355   -2.3756 H         1 <0>         0.0814
     35 H13         1.4857   -1.3906   -2.1899 H         1 <0>         0.0774
     36 H14         1.3434   -2.7969   -4.5675 H         1 <0>         0.0795
     37 H15         1.4561   -1.0058   -4.5160 H         1 <0>         0.0731
     38 H16         3.4281   -1.3966   -5.7417 H         1 <0>         0.0789
     39 H17         3.6226   -3.0390   -5.0582 H         1 <0>         0.0804
@<TRIPOS>BOND
     1    1    6 ar
     2    1    2 ar
     3    1   23 1
     4    2    3 ar
     5    2   24 1
     6    3    4 ar
     7    3   25 1
     8    4   10 1
     9    4    5 ar
    10    5    6 ar
    11    5    7 1
    12    6   26 1
    13    7    8 2
    14    7    9 am
    15    9   13 1
    16    9   10 1
    17   10   11 1
    18   10   14 1
    19   11   12 1
    20   12   13 1
    21   12   27 1
    22   12   28 1
    23   13   29 1
    24   13   30 1
    25   14   19 ar
    26   14   15 ar
    27   15   16 ar
    28   15   31 1
    29   16   17 ar
    30   16   32 1
    31   17   18 ar
    32   17   33 1
    33   18   22 1
    34   18   19 ar
    35   19   20 1
    36   20   21 1
    37   20   34 1
    38   20   35 1
    39   21   22 1
    40   21   36 1
    41   21   37 1
    42   22   38 1
    43   22   39 1
@<TRIPOS>MOLECULE
CHEMBL314884__1
   39    43     0     0     0
SMALL
USER_CHARGES

@<TRIPOS>ATOM
      1 C1         -0.0707    1.2913    0.0391 C.ar      1 <0>        -0.1175
      2 C2          1.0979    2.0328    0.0419 C.ar      1 <0>        -0.0823
      3 C3          2.3271    1.3960    0.0272 C.ar      1 <0>        -0.0854
      4 C4          2.3905    0.0215    0.0090 C.ar      1 <0>        -0.0507
      5 C5          1.2156   -0.7361   -0.0112 C.ar      1 <0>        -0.1463
      6 C6         -0.0195   -0.0869    0.0130 C.ar      1 <0>        -0.0453
      7 C7          1.5886   -2.1630   -0.0816 C.2       1 <0>         0.6007
      8 O1          0.8206   -3.0938    0.0641 O.2       1 <0>        -0.5029
      9 N1          2.9051   -2.2791   -0.3314 N.am      1 <0>        -0.6246
     10 C8          3.5226   -0.9654    0.0171 C.3       1 <0>         0.2576
     11 S1          4.6051   -0.7169   -1.4493 S.3       1 <0>        -0.2473
     12 C9          4.7568   -2.4824   -1.9611 C.3       1 <0>        -0.0827
     13 C10         3.9453   -3.1867   -0.8379 C.3       1 <0>         0.1285
     14 C11         4.2716   -0.9875    1.3246 C.ar      1 <0>        -0.0787
     15 C12         5.6255   -0.7136    1.3472 C.ar      1 <0>        -0.0975
     16 C13         6.3133   -0.7336    2.5458 C.ar      1 <0>        -0.1191
     17 C14         5.6455   -1.0272    3.7190 C.ar      1 <0>        -0.0934
     18 C15         4.2888   -1.3024    3.6984 C.ar      1 <0>        -0.0971
     19 C16         3.5995   -1.2766    2.5001 C.ar      1 <0>        -0.0641
     20 C17         2.1408   -1.6006    2.7419 C.3       1 <0>        -0.0941
     21 C18         2.0973   -2.2460    4.1433 C.3       1 <0>        -0.1182
     22 C19         3.3407   -1.6478    4.8266 C.3       1 <0>        -0.0820
     23 H1         -1.0264    1.7937    0.0620 H         1 <0>         0.1387
     24 H2          1.0507    3.1117    0.0553 H         1 <0>         0.1381
     25 H3          3.2367    1.9783    0.0296 H         1 <0>         0.1320
     26 H4         -0.9335   -0.6624    0.0109 H         1 <0>         0.1369
     27 H5          4.3020   -2.6488   -2.9376 H         1 <0>         0.1086
     28 H6          5.7980   -2.8051   -1.9548 H         1 <0>         0.1213
     29 H7          4.6160   -3.4598   -0.0231 H         1 <0>         0.0906
     30 H8          3.4778   -4.0863   -1.2382 H         1 <0>         0.1060
     31 H9          6.1460   -0.4846    0.4290 H         1 <0>         0.1453
     32 H10         7.3718   -0.5201    2.5652 H         1 <0>         0.1306
     33 H11         6.1836   -1.0425    4.6553 H         1 <0>         0.1241
     34 H12         1.5434   -0.6890    2.7266 H         1 <0>         0.0823
     35 H13         1.7798   -2.3030    1.9907 H         1 <0>         0.0764
     36 H14         1.1857   -1.9654    4.6709 H         1 <0>         0.0801
     37 H15         2.1879   -3.3300    4.0736 H         1 <0>         0.0719
     38 H16         3.8001   -2.3731    5.4981 H         1 <0>         0.0782
     39 H17         3.0611   -0.7480    5.3746 H         1 <0>         0.0815
@<TRIPOS>BOND
     1    1    6 ar
     2    1    2 ar
     3    1   23 1
     4    2    3 ar
     5    2   24 1
     6    3    4 ar
     7    3   25 1
     8    4   10 1
     9    4    5 ar
    10    5    6 ar
    11    5    7 1
    12    6   26 1
    13    7    8 2
    14    7    9 am
    15    9   13 1
    16    9   10 1
    17   10   11 1
    18   10   14 1
    19   11   12 1
    20   12   13 1
    21   12   27 1
    22   12   28 1
    23   13   29 1
    24   13   30 1
    25   14   19 ar
    26   14   15 ar
    27   15   16 ar
    28   15   31 1
    29   16   17 ar
    30   16   32 1
    31   17   18 ar
    32   17   33 1
    33   18   22 1
    34   18   19 ar
    35   19   20 1
    36   20   21 1
    37   20   34 1
    38   20   35 1
    39   21   22 1
    40   21   36 1
    41   21   37 1
    42   22   38 1
    43   22   39 1
@<TRIPOS>MOLECULE
CHEMBL322004
   46    48     0     0     0
SMALL
USER_CHARGES

@<TRIPOS>ATOM
      1 C1          0.0696    1.3497   -0.3337 C.ar      1 <0>        -0.1099
      2 C2          1.2994    1.9783   -0.3894 C.ar      1 <0>        -0.1209
      3 C3          2.4609    1.2316   -0.3241 C.ar      1 <0>        -0.1010
      4 C4          2.3925   -0.1437   -0.2028 C.ar      1 <0>        -0.0920
      5 C5          1.1627   -0.7723   -0.1462 C.ar      1 <0>        -0.0944
      6 C6          0.0012   -0.0257   -0.2128 C.ar      1 <0>        -0.1201
      7 C7          3.6588   -0.9578   -0.1326 C.3       1 <0>         0.0656
      8 O1          4.0608   -1.0968    1.2316 O.3       1 <0>        -0.3371
      9 C8          5.3257   -1.7394    1.4022 C.3       1 <0>         0.1980
     10 C9          5.5694   -1.9873    2.8686 C.2       1 <0>        -0.1612
     11 C10         4.6644   -1.6157    3.7631 C.2       1 <0>        -0.0613
     12 C11         4.9034   -1.8590    5.2013 C.ar      1 <0>        -0.0648
     13 C12         6.0833   -2.4744    5.6212 C.ar      1 <0>        -0.1081
     14 C13         6.3003   -2.6986    6.9651 C.ar      1 <0>        -0.1197
     15 C14         5.3511   -2.3151    7.8956 C.ar      1 <0>        -0.1151
     16 C15         4.1790   -1.7049    7.4858 C.ar      1 <0>        -0.1215
     17 C16         3.9528   -1.4690    6.1453 C.ar      1 <0>        -0.1011
     18 C17         6.4162   -0.8553    0.8542 C.2       1 <0>        -0.2589
     19 C18         6.1099    0.3503    0.2945 C.2       1 <0>         0.0130
     20 C19         7.1423    1.1548   -0.2078 C.2       1 <0>        -0.2383
     21 C20         8.4258    0.7315   -0.1337 C.2       1 <0>         0.1528
     22 N1          8.7287   -0.4690    0.4233 N.am      1 <0>        -0.6042
     23 C21         7.7599   -1.2617    0.9198 C.2       1 <0>         0.5231
     24 O2          8.0485   -2.3358    1.4226 O.2       1 <0>        -0.5230
     25 C22         5.3255   -3.0731    0.6525 C.3       1 <0>         0.4287
     26 F1          5.2663   -2.8340   -0.7246 F         1 <0>        -0.1845
     27 F2          6.4961   -3.7775    0.9536 F         1 <0>        -0.1480
     28 F3          4.2139   -3.8274    1.0431 F         1 <0>        -0.1743
     29 H1         -0.8379    1.9334   -0.3801 H         1 <0>         0.1246
     30 H2          1.3529    3.0528   -0.4842 H         1 <0>         0.1256
     31 H3          3.4218    1.7227   -0.3684 H         1 <0>         0.1216
     32 H4          1.1092   -1.8468   -0.0517 H         1 <0>         0.1248
     33 H5         -0.9597   -0.5168   -0.1690 H         1 <0>         0.1258
     34 H6          3.4808   -1.9441   -0.5613 H         1 <0>         0.0759
     35 H7          4.4460   -0.4544   -0.6939 H         1 <0>         0.0788
     36 H8          6.4815   -2.4679    3.1907 H         1 <0>         0.1489
     37 H9          3.7524   -1.1352    3.4409 H         1 <0>         0.1349
     38 H10         6.8248   -2.7748    4.8957 H         1 <0>         0.1260
     39 H11         7.2131   -3.1749    7.2914 H         1 <0>         0.1242
     40 H12         5.5256   -2.4932    8.9464 H         1 <0>         0.1229
     41 H13         3.4416   -1.4086    8.2171 H         1 <0>         0.1246
     42 H14         3.0398   -0.9879    5.8271 H         1 <0>         0.1257
     43 H15         5.0834    0.6813    0.2386 H         1 <0>         0.1482
     44 H16         6.9137    2.1115   -0.6538 H         1 <0>         0.1534
     45 H17         9.2173    1.3552   -0.5222 H         1 <0>         0.1713
     46 H18         9.6538   -0.7572    0.4677 H         1 <0>         0.4209
@<TRIPOS>BOND
     1    1    6 ar
     2    1    2 ar
     3    1   29 1
     4    2    3 ar
     5    2   30 1
     6    3    4 ar
     7    3   31 1
     8    4    5 ar
     9    4    7 1
    10    5    6 ar
    11    5   32 1
    12    6   33 1
    13    7    8 1
    14    7   34 1
    15    7   35 1
    16    8    9 1
    17    9   10 1
    18    9   25 1
    19    9   18 1
    20   10   11 2
    21   10   36 1
    22   11   12 1
    23   11   37 1
    24   12   17 ar
    25   12   13 ar
    26   13   14 ar
    27   13   38 1
    28   14   15 ar
    29   14   39 1
    30   15   16 ar
    31   15   40 1
    32   16   17 ar
    33   16   41 1
    34   17   42 1
    35   18   19 2
    36   18   23 1
    37   19   20 1
    38   19   43 1
    39   20   21 2
    40   20   44 1
    41   21   22 1
    42   21   45 1
    43   22   23 am
    44   22   46 1
    45   23   24 2
    46   25   26 1
    47   25   27 1
    48   25   28 1
@<TRIPOS>MOLECULE
CHEMBL322004__1
   46    48     0     0     0
SMALL
USER_CHARGES

@<TRIPOS>ATOM
      1 C1          0.3543    2.1927    1.3551 C.ar      1 <0>        -0.1100
      2 C2          1.6091    2.7400    1.5473 C.ar      1 <0>        -0.1201
      3 C3          2.7387    1.9969    1.2598 C.ar      1 <0>        -0.0945
      4 C4          2.6135    0.7063    0.7805 C.ar      1 <0>        -0.0919
      5 C5          1.3588    0.1587    0.5891 C.ar      1 <0>        -0.1007
      6 C6          0.2292    0.9023    0.8753 C.ar      1 <0>        -0.1210
      7 C7          3.8450   -0.1034    0.4661 C.3       1 <0>         0.0700
      8 O1          4.2474   -0.8295    1.6292 O.3       1 <0>        -0.3376
      9 C8          5.3257   -1.7394    1.4022 C.3       1 <0>         0.1979
     10 C9          5.7908   -2.3056    2.7191 C.2       1 <0>        -0.1610
     11 C10         5.2018   -1.9319    3.8463 C.2       1 <0>        -0.0606
     12 C11         5.6579   -2.4874    5.1380 C.ar      1 <0>        -0.0651
     13 C12         6.7120   -3.4009    5.1746 C.ar      1 <0>        -0.1082
     14 C13         7.1330   -3.9157    6.3835 C.ar      1 <0>        -0.1197
     15 C14         6.5121   -3.5283    7.5576 C.ar      1 <0>        -0.1149
     16 C15         5.4662   -2.6234    7.5280 C.ar      1 <0>        -0.1215
     17 C16         5.0400   -2.0961    6.3263 C.ar      1 <0>        -0.1009
     18 C17         4.8578   -2.8605    0.5105 C.2       1 <0>        -0.2589
     19 C18         3.5589   -2.9164    0.0978 C.2       1 <0>         0.0163
     20 C19         3.1482   -3.9692   -0.7319 C.2       1 <0>        -0.2383
     21 C20         4.0378   -4.9150   -1.1140 C.2       1 <0>         0.1525
     22 N1          5.3301   -4.8579   -0.7018 N.am      1 <0>        -0.6041
     23 C21         5.7564   -3.8561    0.0907 C.2       1 <0>         0.5214
     24 O2          6.9227   -3.8154    0.4485 O.2       1 <0>        -0.5222
     25 C22         6.4832   -1.0003    0.7276 C.3       1 <0>         0.4281
     26 F1          6.7967    0.1467    1.4645 F         1 <0>        -0.1751
     27 F2          7.6018   -1.8386    0.6710 F         1 <0>        -0.1451
     28 F3          6.1093   -0.6335   -0.5696 F         1 <0>        -0.1850
     29 H1         -0.5282    2.7716    1.5840 H         1 <0>         0.1245
     30 H2          1.7068    3.7482    1.9218 H         1 <0>         0.1258
     31 H3          3.7190    2.4247    1.4092 H         1 <0>         0.1248
     32 H4          1.2610   -0.8494    0.2143 H         1 <0>         0.1216
     33 H5         -0.7512    0.4746    0.7255 H         1 <0>         0.1256
     34 H6          3.6240   -0.8026   -0.3404 H         1 <0>         0.0762
     35 H7          4.6498    0.5640    0.1579 H         1 <0>         0.0748
     36 H8          6.6040   -3.0159    2.7444 H         1 <0>         0.1468
     37 H9          4.3886   -1.2217    3.8210 H         1 <0>         0.1352
     38 H10         7.1971   -3.7046    4.2587 H         1 <0>         0.1257
     39 H11         7.9488   -4.6228    6.4133 H         1 <0>         0.1243
     40 H12         6.8452   -3.9345    8.5012 H         1 <0>         0.1230
     41 H13         4.9851   -2.3255    8.4479 H         1 <0>         0.1246
     42 H14         4.2268   -1.3857    6.3049 H         1 <0>         0.1259
     43 H15         2.8546   -2.1583    0.4070 H         1 <0>         0.1461
     44 H16         2.1226   -4.0257   -1.0657 H         1 <0>         0.1533
     45 H17         3.7162   -5.7239   -1.7532 H         1 <0>         0.1711
     46 H18         5.9543   -5.5444   -0.9845 H         1 <0>         0.4208
@<TRIPOS>BOND
     1    1    6 ar
     2    1    2 ar
     3    1   29 1
     4    2    3 ar
     5    2   30 1
     6    3    4 ar
     7    3   31 1
     8    4    5 ar
     9    4    7 1
    10    5    6 ar
    11    5   32 1
    12    6   33 1
    13    7    8 1
    14    7   34 1
    15    7   35 1
    16    8    9 1
    17    9   10 1
    18    9   25 1
    19    9   18 1
    20   10   11 2
    21   10   36 1
    22   11   12 1
    23   11   37 1
    24   12   17 ar
    25   12   13 ar
    26   13   14 ar
    27   13   38 1
    28   14   15 ar
    29   14   39 1
    30   15   16 ar
    31   15   40 1
    32   16   17 ar
    33   16   41 1
    34   17   42 1
    35   18   19 2
    36   18   23 1
    37   19   20 1
    38   19   43 1
    39   20   21 2
    40   20   44 1
    41   21   22 1
    42   21   45 1
    43   22   23 am
    44   22   46 1
    45   23   24 2
    46   25   26 1
    47   25   27 1
    48   25   28 1
@<TRIPOS>MOLECULE
CHEMBL305010
   34    36     0     0     0
SMALL
USER_CHARGES

@<TRIPOS>ATOM
      1 C1         -0.0187    1.5258    0.0104 C.3       1 <0>        -0.1720
      2 C2          0.0021   -0.0041    0.0020 C.3       1 <0>         0.1370
      3 N1          0.6878   -0.4765   -1.2033 N.pl3     1 <0>        -0.5963
      4 C3         -0.0242   -0.7091   -2.3735 C.ar      1 <0>         0.2102
      5 C4         -1.0490   -1.6460   -2.3888 C.ar      1 <0>        -0.1404
      6 C5         -1.7319   -1.9058   -3.5600 C.ar      1 <0>        -0.0736
      7 C6         -1.3978   -1.2376   -4.7268 C.ar      1 <0>        -0.1376
      8 C7         -0.3938   -0.2942   -4.7262 C.ar      1 <0>        -0.0442
      9 C8          0.2948   -0.0052   -3.5438 C.ar      1 <0>        -0.1579
     10 C9          1.3012    1.0622   -3.5275 C.2       1 <0>         0.5723
     11 O1          1.0743    2.0470   -4.2033 O.2       1 <0>        -0.5283
     12 N2          2.4348    1.0494   -2.8421 N.am      1 <0>        -0.5405
     13 C10         2.9107    0.0227   -2.0293 C.ar      1 <0>         0.0906
     14 C11         2.0646   -0.6935   -1.1940 C.ar      1 <0>         0.3602
     15 N3          2.5621   -1.6130   -0.3778 N.ar      1 <0>        -0.4804
     16 C12         3.8483   -1.9065   -0.3583 C.ar      1 <0>         0.1112
     17 C13         4.7353   -1.2616   -1.1953 C.ar      1 <0>        -0.1580
     18 C14         4.2666   -0.2850   -2.0438 C.ar      1 <0>        -0.0834
     19 C15         3.2784    2.2422   -2.9507 C.3       1 <0>         0.0582
     20 H1          1.0039    1.9031    0.0027 H         1 <0>         0.0525
     21 H2         -0.5459    1.8868   -0.8726 H         1 <0>         0.0560
     22 H3         -0.5289    1.8773    0.9072 H         1 <0>         0.0703
     23 H4          0.5293   -0.3651    0.8851 H         1 <0>         0.0823
     24 H5         -1.0205   -0.3814    0.0098 H         1 <0>         0.0782
     25 H6         -1.3123   -2.1719   -1.4830 H         1 <0>         0.1335
     26 H7         -2.5300   -2.6334   -3.5668 H         1 <0>         0.1336
     27 H8         -1.9277   -1.4572   -5.6419 H         1 <0>         0.1342
     28 H9         -0.1383    0.2225   -5.6395 H         1 <0>         0.1352
     29 H10         4.2118   -2.6619    0.3226 H         1 <0>         0.1649
     30 H11         5.7833   -1.5220   -1.1857 H         1 <0>         0.1460
     31 H12         4.9433    0.2359   -2.7050 H         1 <0>         0.1435
     32 H13         2.8001    2.9667   -3.6099 H         1 <0>         0.1056
     33 H14         3.4130    2.6832   -1.9630 H         1 <0>         0.0678
     34 H15         4.2496    1.9643   -3.3600 H         1 <0>         0.0692
@<TRIPOS>BOND
     1    1    2 1
     2    1   20 1
     3    1   21 1
     4    1   22 1
     5    2    3 1
     6    2   23 1
     7    2   24 1
     8    3   14 1
     9    3    4 1
    10    4    9 ar
    11    4    5 ar
    12    5    6 ar
    13    5   25 1
    14    6    7 ar
    15    6   26 1
    16    7    8 ar
    17    7   27 1
    18    8    9 ar
    19    8   28 1
    20    9   10 1
    21   10   11 2
    22   10   12 am
    23   12   13 1
    24   12   19 1
    25   13   18 ar
    26   13   14 ar
    27   14   15 ar
    28   15   16 ar
    29   16   17 ar
    30   16   29 1
    31   17   18 ar
    32   17   30 1
    33   18   31 1
    34   19   32 1
    35   19   33 1
    36   19   34 1
@<TRIPOS>MOLECULE
CHEMBL31977
   38    40     0     0     0
SMALL
USER_CHARGES

@<TRIPOS>ATOM
      1 C1          0.1466    1.5262   -0.1011 C.3       1 <0>        -0.1321
      2 C2          0.0896   -0.0019   -0.0506 C.3       1 <0>         0.0848
      3 C3         -1.3354   -0.4362   -0.0582 C.2       1 <0>         0.5027
      4 O1         -2.1375    0.3317   -0.5462 O.2       1 <0>        -0.5137
      5 N1         -1.8075   -1.5618    0.4079 N.am      1 <0>        -0.6460
      6 C4         -1.3004   -2.5769    1.1907 C.ar      1 <0>         0.2061
      7 C5         -2.2420   -3.5235    1.6280 C.ar      1 <0>        -0.1502
      8 C6         -1.8721   -4.5909    2.4098 C.ar      1 <0>        -0.0591
      9 C7         -0.5465   -4.7428    2.7786 C.ar      1 <0>        -0.0517
     10 C8          0.3837   -3.8177    2.3583 C.ar      1 <0>        -0.0967
     11 C9          0.0175   -2.7307    1.5667 C.ar      1 <0>        -0.1484
     12 C10         1.1228   -1.7961    1.1859 C.3       1 <0>         0.1780
     13 O2          0.7610   -0.4496    1.1047 O.3       1 <0>        -0.3374
     14 C11         1.6644   -2.2231   -0.1540 C.2       1 <0>        -0.2380
     15 C12         1.2311   -3.3249   -0.7147 C.2       1 <0>        -0.0516
     16 C13         1.8597   -3.8177   -1.9926 C.3       1 <0>        -0.1439
     17 C14         1.1840   -4.9907   -2.7057 C.3       1 <0>        -0.1705
     18 C15         2.5098   -5.2026   -1.9719 C.3       1 <0>        -0.1600
     19 C16         2.2449   -1.9317    2.2172 C.3       1 <0>         0.4732
     20 F1          2.8453   -3.1889    2.0903 F         1 <0>        -0.1599
     21 F2          3.2012   -0.9341    1.9997 F         1 <0>        -0.1620
     22 F3          1.7140   -1.7962    3.5044 F         1 <0>        -0.1655
     23 Cl1        -0.0606   -6.0876    3.7630 Cl        1 <0>        -0.0517
     24 H1          1.1868    1.8502   -0.1325 H         1 <0>         0.0802
     25 H2         -0.3712    1.8798   -0.9927 H         1 <0>         0.0942
     26 H3         -0.3354    1.9373    0.7860 H         1 <0>         0.0730
     27 H4          0.5886   -0.4059   -0.9315 H         1 <0>         0.1066
     28 H5         -2.7269   -1.7195    0.1420 H         1 <0>         0.4048
     29 H6         -3.2776   -3.4100    1.3434 H         1 <0>         0.1452
     30 H7         -2.6116   -5.3075    2.7352 H         1 <0>         0.1482
     31 H8          1.4173   -3.9372    2.6478 H         1 <0>         0.1635
     32 H9          2.4098   -1.6208   -0.6521 H         1 <0>         0.1412
     33 H10         0.4234   -3.8801   -0.2611 H         1 <0>         0.1219
     34 H11         2.3258   -3.0522   -2.6130 H         1 <0>         0.1151
     35 H12         0.2849   -5.4060   -2.2505 H         1 <0>         0.0970
     36 H13         1.2054   -4.9970   -3.7955 H         1 <0>         0.1009
     37 H14         3.4033   -5.3483   -2.5789 H         1 <0>         0.1027
     38 H15         2.4828   -5.7573   -1.0340 H         1 <0>         0.0993
@<TRIPOS>BOND
     1    1    2 1
     2    1   24 1
     3    1   25 1
     4    1   26 1
     5    2   13 1
     6    2    3 1
     7    2   27 1
     8    3    4 2
     9    3    5 am
    10    5    6 1
    11    5   28 1
    12    6   11 ar
    13    6    7 ar
    14    7    8 ar
    15    7   29 1
    16    8    9 ar
    17    8   30 1
    18    9   10 ar
    19    9   23 1
    20   10   11 ar
    21   10   31 1
    22   11   12 1
    23   12   13 1
    24   12   14 1
    25   12   19 1
    26   14   15 2
    27   14   32 1
    28   15   16 1
    29   15   33 1
    30   16   18 1
    31   16   17 1
    32   16   34 1
    33   17   18 1
    34   17   35 1
    35   17   36 1
    36   18   37 1
    37   18   38 1
    38   19   20 1
    39   19   21 1
    40   19   22 1
@<TRIPOS>MOLECULE
CHEMBL31977__1
   38    40     0     0     0
SMALL
USER_CHARGES

@<TRIPOS>ATOM
      1 C1          0.3197    1.7504    0.1865 C.3       1 <0>        -0.1971
      2 C2          0.4567    0.2396    0.0369 C.3       1 <0>         0.1002
      3 C3         -0.8549   -0.2973   -0.4429 C.2       1 <0>         0.5021
      4 O1         -1.0813   -0.0557   -1.6164 O.2       1 <0>        -0.5146
      5 N1         -1.6596   -1.0279    0.2939 N.am      1 <0>        -0.6507
      6 C4         -1.8126   -1.3385    1.6286 C.ar      1 <0>         0.2069
      7 C5         -3.0294   -2.0746    1.9037 C.ar      1 <0>        -0.1389
      8 C6         -3.2989   -2.4435    3.2091 C.ar      1 <0>        -0.0671
      9 C7         -2.3803   -2.2091    4.1959 C.ar      1 <0>        -0.0439
     10 C8         -1.1752   -1.5911    3.8844 C.ar      1 <0>        -0.0914
     11 C9         -0.9237   -1.1677    2.5883 C.ar      1 <0>        -0.1354
     12 C10         0.4204   -0.5310    2.4529 C.3       1 <0>         0.2022
     13 O2          0.9934   -0.3152    1.1397 O.3       1 <0>        -0.3640
     14 C11         0.4857    0.7478    3.2573 C.2       1 <0>        -0.2218
     15 C12         1.1492    1.7788    2.7957 C.2       1 <0>        -0.0631
     16 C13         1.0988    3.0958    3.5265 C.3       1 <0>        -0.1418
     17 C14         1.7238    4.3105    2.8373 C.3       1 <0>        -0.1692
     18 C15         2.4208    3.6702    4.0394 C.3       1 <0>        -0.1648
     19 C16         1.4302   -1.5346    3.1300 C.3       1 <0>         0.4568
     20 F1          1.2478   -2.8133    2.5925 F         1 <0>        -0.1694
     21 F2          2.7414   -1.1103    2.8894 F         1 <0>        -0.1631
     22 F3          1.1975   -1.5709    4.5091 F         1 <0>        -0.1651
     23 Cl1        -2.7835   -2.6564    5.8173 Cl        1 <0>        -0.0474
     24 H1          1.2966    2.1846    0.3993 H         1 <0>         0.0862
     25 H2         -0.0721    2.1731   -0.7387 H         1 <0>         0.0830
     26 H3         -0.3635    1.9739    1.0059 H         1 <0>         0.0671
     27 H4          1.1737    0.0717   -0.7925 H         1 <0>         0.1536
     28 H5         -2.4496   -1.3186   -0.2344 H         1 <0>         0.4013
     29 H6         -3.6919   -2.2107    1.1122 H         1 <0>         0.1443
     30 H7         -4.2370   -2.9624    3.3447 H         1 <0>         0.1490
     31 H8         -0.5091   -1.3650    4.6774 H         1 <0>         0.1706
     32 H9         -0.0146    0.8112    4.2123 H         1 <0>         0.1384
     33 H10         1.7323    1.6849    1.8916 H         1 <0>         0.1350
     34 H11         0.2084    3.2634    4.1325 H         1 <0>         0.1137
     35 H12         2.1714    4.1570    1.8554 H         1 <0>         0.0981
     36 H13         1.2445    5.2775    2.9898 H         1 <0>         0.1002
     37 H14         2.4002    4.2160    4.9827 H         1 <0>         0.1008
     38 H15         3.3271    3.0955    3.8484 H         1 <0>         0.0994
@<TRIPOS>BOND
     1    1    2 1
     2    1   24 1
     3    1   25 1
     4    1   26 1
     5    2   13 1
     6    2    3 1
     7    2   27 1
     8    3    4 2
     9    3    5 am
    10    5    6 1
    11    5   28 1
    12    6   11 ar
    13    6    7 ar
    14    7    8 ar
    15    7   29 1
    16    8    9 ar
    17    8   30 1
    18    9   10 ar
    19    9   23 1
    20   10   11 ar
    21   10   31 1
    22   11   12 1
    23   12   13 1
    24   12   14 1
    25   12   19 1
    26   14   15 2
    27   14   32 1
    28   15   16 1
    29   15   33 1
    30   16   18 1
    31   16   17 1
    32   16   34 1
    33   17   18 1
    34   17   35 1
    35   17   36 1
    36   18   37 1
    37   18   38 1
    38   19   20 1
    39   19   21 1
    40   19   22 1
@<TRIPOS>MOLECULE
CHEMBL31977__2
   38    40     0     0     0
SMALL
USER_CHARGES

@<TRIPOS>ATOM
      1 C1         -0.5373    1.5478    0.8655 C.3       1 <0>        -0.1970
      2 C2         -0.3536    0.0819    0.4712 C.3       1 <0>         0.1159
      3 C3         -0.2708   -0.0140   -1.0131 C.2       1 <0>         0.4963
      4 O1         -1.3188   -0.1317   -1.6117 O.2       1 <0>        -0.5188
      5 N1          0.8202    0.0202   -1.7259 N.am      1 <0>        -0.6433
      6 C4          2.1643    0.0923   -1.4317 C.ar      1 <0>         0.2038
      7 C5          2.9782    0.3035   -2.5598 C.ar      1 <0>        -0.1512
      8 C6          4.3423    0.4130   -2.4518 C.ar      1 <0>        -0.0570
      9 C7          4.9300    0.3173   -1.2033 C.ar      1 <0>        -0.0548
     10 C8          4.1400    0.1042   -0.0944 C.ar      1 <0>        -0.0772
     11 C9          2.7498   -0.0216   -0.1905 C.ar      1 <0>        -0.1482
     12 C10         2.0487   -0.2958    1.1024 C.3       1 <0>         0.2210
     13 O2          0.6981   -0.5186    1.1331 O.3       1 <0>        -0.3689
     14 C11         2.3968    0.8230    2.0625 C.2       1 <0>        -0.2259
     15 C12         1.4481    1.4334    2.7285 C.2       1 <0>        -0.0755
     16 C13         1.7712    2.6523    3.5537 C.3       1 <0>        -0.1376
     17 C14         0.6712    3.2003    4.4651 C.3       1 <0>        -0.1703
     18 C15         1.0595    3.9580    3.1938 C.3       1 <0>        -0.1669
     19 C16         2.7056   -1.5698    1.6876 C.3       1 <0>         0.4601
     20 F1          4.0363   -1.2969    2.0220 F         1 <0>        -0.1668
     21 F2          2.0094   -1.9692    2.8335 F         1 <0>        -0.1632
     22 F3          2.6646   -2.5947    0.7362 F         1 <0>        -0.1724
     23 Cl1         6.6511    0.4638   -1.0318 Cl        1 <0>        -0.0514
     24 H1          0.4025    2.0820    0.7261 H         1 <0>         0.0735
     25 H2         -1.3077    1.9985    0.2398 H         1 <0>         0.0851
     26 H3         -0.8377    1.6078    1.9116 H         1 <0>         0.0916
     27 H4         -1.2856   -0.4427    0.7656 H         1 <0>         0.1603
     28 H5          0.6466   -0.0083   -2.6796 H         1 <0>         0.4059
     29 H6          2.5185    0.3805   -3.5337 H         1 <0>         0.1450
     30 H7          4.9485    0.5703   -3.3314 H         1 <0>         0.1490
     31 H8          4.6319    0.0355    0.8638 H         1 <0>         0.1596
     32 H9          3.4270    1.1174    2.1979 H         1 <0>         0.1361
     33 H10         0.4344    1.0631    2.6862 H         1 <0>         0.1354
     34 H11         2.7997    2.7208    3.9082 H         1 <0>         0.1131
     35 H12        -0.2861    2.6792    4.4678 H         1 <0>         0.0981
     36 H13         0.9759    3.6294    5.4196 H         1 <0>         0.1000
     37 H14         1.6196    4.8856    3.3120 H         1 <0>         0.1003
     38 H15         0.3576    3.9354    2.3602 H         1 <0>         0.0961
@<TRIPOS>BOND
     1    1    2 1
     2    1   24 1
     3    1   25 1
     4    1   26 1
     5    2   13 1
     6    2    3 1
     7    2   27 1
     8    3    4 2
     9    3    5 am
    10    5    6 1
    11    5   28 1
    12    6   11 ar
    13    6    7 ar
    14    7    8 ar
    15    7   29 1
    16    8    9 ar
    17    8   30 1
    18    9   10 ar
    19    9   23 1
    20   10   11 ar
    21   10   31 1
    22   11   12 1
    23   12   13 1
    24   12   14 1
    25   12   19 1
    26   14   15 2
    27   14   32 1
    28   15   16 1
    29   15   33 1
    30   16   18 1
    31   16   17 1
    32   16   34 1
    33   17   18 1
    34   17   35 1
    35   17   36 1
    36   18   37 1
    37   18   38 1
    38   19   20 1
    39   19   21 1
    40   19   22 1
@<TRIPOS>MOLECULE
CHEMBL31977__3
   38    40     0     0     0
SMALL
USER_CHARGES

@<TRIPOS>ATOM
      1 C1         -0.7662    1.3993    0.1887 C.3       1 <0>        -0.1319
      2 C2         -0.3909   -0.0807    0.0917 C.3       1 <0>         0.0839
      3 C3          0.3653   -0.3095   -1.1714 C.2       1 <0>         0.5028
      4 O1          0.1748    0.4788   -2.0733 O.2       1 <0>        -0.5134
      5 N1          1.2138   -1.2759   -1.4028 N.am      1 <0>        -0.6460
      6 C4          1.8388   -2.2278   -0.6268 C.ar      1 <0>         0.2051
      7 C5          2.8349   -2.9725   -1.2805 C.ar      1 <0>        -0.1512
      8 C6          3.5377   -3.9552   -0.6268 C.ar      1 <0>        -0.0588
      9 C7          3.2650   -4.2225    0.7038 C.ar      1 <0>        -0.0515
     10 C8          2.2896   -3.4984    1.3537 C.ar      1 <0>        -0.0949
     11 C9          1.5701   -2.5011    0.6981 C.ar      1 <0>        -0.1484
     12 C10         0.5359   -1.7927    1.5169 C.3       1 <0>         0.1776
     13 O2          0.3715   -0.4376    1.2220 O.3       1 <0>        -0.3359
     14 C11        -0.7866   -2.4861    1.3137 C.2       1 <0>        -0.2341
     15 C12        -0.8871   -3.4647    0.4486 C.2       1 <0>        -0.0552
     16 C13        -2.2327   -4.0770    0.1565 C.3       1 <0>        -0.1431
     17 C14        -2.2616   -5.3417   -0.7041 C.3       1 <0>        -0.1669
     18 C15        -2.7414   -4.0101   -1.2849 C.3       1 <0>        -0.1645
     19 C16         0.9186   -1.9216    2.9926 C.3       1 <0>         0.4719
     20 F1          2.2480   -1.5221    3.1662 F         1 <0>        -0.1657
     21 F2          0.0824   -1.1073    3.7640 F         1 <0>        -0.1624
     22 F3          0.7752   -3.2531    3.3970 F         1 <0>        -0.1599
     23 Cl1         4.1441   -5.4600    1.5461 Cl        1 <0>        -0.0515
     24 H1          0.1409    2.0026    0.2247 H         1 <0>         0.0728
     25 H2         -1.3564    1.6824   -0.6828 H         1 <0>         0.0941
     26 H3         -1.3505    1.5675    1.0934 H         1 <0>         0.0802
     27 H4         -1.3021   -0.6786    0.0735 H         1 <0>         0.1073
     28 H5          1.4611   -1.3379   -2.3387 H         1 <0>         0.4044
     29 H6          3.0522   -2.7683   -2.3185 H         1 <0>         0.1450
     30 H7          4.2988   -4.5166   -1.1484 H         1 <0>         0.1482
     31 H8          2.0779   -3.7083    2.3917 H         1 <0>         0.1634
     32 H9         -1.6516   -2.1763    1.8814 H         1 <0>         0.1417
     33 H10        -0.0055   -3.8326   -0.0552 H         1 <0>         0.1220
     34 H11        -2.9702   -3.9941    0.9548 H         1 <0>         0.1169
     35 H12        -1.3073   -5.7309   -1.0589 H         1 <0>         0.0977
     36 H13        -3.0181   -6.0913   -0.4719 H         1 <0>         0.1022
     37 H14        -3.8136   -3.8836   -1.4349 H         1 <0>         0.1032
     38 H15        -2.1028   -3.5231   -2.0219 H         1 <0>         0.0946
@<TRIPOS>BOND
     1    1    2 1
     2    1   24 1
     3    1   25 1
     4    1   26 1
     5    2   13 1
     6    2    3 1
     7    2   27 1
     8    3    4 2
     9    3    5 am
    10    5    6 1
    11    5   28 1
    12    6   11 ar
    13    6    7 ar
    14    7    8 ar
    15    7   29 1
    16    8    9 ar
    17    8   30 1
    18    9   10 ar
    19    9   23 1
    20   10   11 ar
    21   10   31 1
    22   11   12 1
    23   12   13 1
    24   12   14 1
    25   12   19 1
    26   14   15 2
    27   14   32 1
    28   15   16 1
    29   15   33 1
    30   16   18 1
    31   16   17 1
    32   16   34 1
    33   17   18 1
    34   17   35 1
    35   17   36 1
    36   18   37 1
    37   18   38 1
    38   19   20 1
    39   19   21 1
    40   19   22 1
@<TRIPOS>MOLECULE
CHEMBL267447
   53    56     0     0     0
SMALL
USER_CHARGES

@<TRIPOS>ATOM
      1 C1         -2.7867    1.7338   -0.5815 C.3       1 <0>        -0.1490
      2 C2         -2.8055    0.2144   -0.4025 C.3       1 <0>        -0.1105
      3 C3         -1.4152   -0.2669    0.0176 C.3       1 <0>        -0.0975
      4 C4         -1.4443   -1.7578    0.2352 C.2       1 <0>         0.0589
      5 C5         -1.6135   -2.2713    1.4814 C.2       1 <0>        -0.2782
      6 C6         -1.6383   -3.6679    1.6671 C.2       1 <0>         0.5067
      7 O1         -1.7902   -4.1206    2.7877 O.2       1 <0>        -0.4619
      8 O2         -1.4976   -4.5085    0.6280 O.3       1 <0>        -0.2444
      9 C7         -1.3268   -4.0387   -0.6283 C.ar      1 <0>         0.2401
     10 C8         -1.3013   -2.6500   -0.8586 C.ar      1 <0>        -0.2098
     11 C9         -1.1296   -2.1673   -2.1623 C.ar      1 <0>         0.2408
     12 C10        -0.9923   -3.0720   -3.2153 C.ar      1 <0>        -0.1963
     13 C11        -1.0263   -4.4558   -2.9775 C.ar      1 <0>         0.2513
     14 C12        -1.1813   -4.9287   -1.6876 C.ar      1 <0>        -0.2638
     15 C13        -1.2105   -6.4074   -1.3917 C.3       1 <0>         0.1704
     16 H1         -0.2500   -6.7132   -0.9770 H         1 <0>         0.1117
     17 C14        -1.4800   -7.1876   -2.6804 C.3       1 <0>        -0.1566
     18 H2         -2.5154   -7.0422   -2.9885 H         1 <0>         0.0915
     19 C15        -0.5371   -6.6575   -3.7684 C.3       1 <0>         0.0897
     20 H3          0.4945   -6.7183   -3.4219 H         1 <0>         0.0850
     21 O3         -0.8986   -5.2960   -4.0353 O.3       1 <0>        -0.2948
     22 C16        -0.7025   -7.4874   -5.0431 C.3       1 <0>        -0.1492
     23 C17        -1.2153   -8.6764   -2.4474 C.3       1 <0>        -0.1441
     24 O4         -2.2457   -6.6824   -0.4457 O.3       1 <0>        -0.5319
     25 C18        -0.8113   -2.5384   -4.5824 C.2       1 <0>        -0.0700
     26 C19        -0.4584   -1.2610   -4.7144 C.2       1 <0>        -0.1960
     27 C20        -0.2430   -0.4097   -3.4908 C.3       1 <0>         0.1422
     28 O5         -1.0939   -0.8387   -2.4269 O.3       1 <0>        -0.2776
     29 C21        -0.5548    1.0494   -3.8296 C.3       1 <0>        -0.1382
     30 C22         1.2168   -0.5234   -3.0471 C.3       1 <0>        -0.1748
     31 H4         -3.7771    2.0767   -0.8808 H         1 <0>         0.0559
     32 H5         -2.5074    2.2071    0.3598 H         1 <0>         0.0541
     33 H6         -2.0621    2.0001   -1.3510 H         1 <0>         0.0567
     34 H7         -3.5301   -0.0518    0.3670 H         1 <0>         0.0607
     35 H8         -3.0848   -0.2589   -1.3438 H         1 <0>         0.0688
     36 H9         -0.6960   -0.0280   -0.7658 H         1 <0>         0.1046
     37 H10        -1.1230    0.2298    0.9428 H         1 <0>         0.0800
     38 H11        -1.7284   -1.6106    2.3280 H         1 <0>         0.1612
     39 H12        -1.7328   -7.4163   -5.3918 H         1 <0>         0.0699
     40 H13        -0.0312   -7.1079   -5.8134 H         1 <0>         0.0709
     41 H14        -0.4614   -8.5293   -4.8322 H         1 <0>         0.0877
     42 H15        -1.8725   -9.0432   -1.6590 H         1 <0>         0.0714
     43 H16        -1.4084   -9.2281   -3.3674 H         1 <0>         0.0662
     44 H17        -0.1763   -8.8184   -2.1498 H         1 <0>         0.0609
     45 H18        -3.1372   -6.5049   -0.7756 H         1 <0>         0.3740
     46 H19        -0.9606   -3.1662   -5.4484 H         1 <0>         0.1391
     47 H20        -0.3264   -0.8359   -5.6984 H         1 <0>         0.1362
     48 H21        -1.5917    1.1333   -4.1549 H         1 <0>         0.0706
     49 H22        -0.3999    1.6686   -2.9460 H         1 <0>         0.0720
     50 H23         0.1052    1.3858   -4.6292 H         1 <0>         0.0835
     51 H24         1.8691   -0.1941   -3.8559 H         1 <0>         0.0797
     52 H25         1.3800    0.1035   -2.1705 H         1 <0>         0.0715
     53 H26         1.4413   -1.5608   -2.7988 H         1 <0>         0.0608
@<TRIPOS>BOND
     1    1    2 1
     2    1   31 1
     3    1   32 1
     4    1   33 1
     5    2    3 1
     6    2   34 1
     7    2   35 1
     8    3    4 1
     9    3   36 1
    10    3   37 1
    11    4   10 1
    12    4    5 2
    13    5    6 1
    14    5   38 1
    15    6    7 2
    16    6    8 1
    17    8    9 1
    18    9   14 ar
    19    9   10 ar
    20   10   11 ar
    21   11   28 1
    22   11   12 ar
    23   12   13 ar
    24   12   25 1
    25   13   21 1
    26   13   14 ar
    27   14   15 1
    28   15   16 1
    29   15   17 1
    30   15   24 1
    31   17   18 1
    32   17   19 1
    33   17   23 1
    34   19   20 1
    35   19   21 1
    36   19   22 1
    37   22   39 1
    38   22   40 1
    39   22   41 1
    40   23   42 1
    41   23   43 1
    42   23   44 1
    43   24   45 1
    44   25   26 2
    45   25   46 1
    46   26   27 1
    47   26   47 1
    48   27   28 1
    49   27   29 1
    50   27   30 1
    51   29   48 1
    52   29   49 1
    53   29   50 1
    54   30   51 1
    55   30   52 1
    56   30   53 1
@<TRIPOS>MOLECULE
CHEMBL83140
   37    38     0     0     0
SMALL
USER_CHARGES

@<TRIPOS>ATOM
      1 C1          0.0250    1.4334    0.4220 C.3       1 <0>        -0.1004
      2 C2          0.0115   -0.0553    0.1883 C.2       1 <0>        -0.2461
      3 C3         -1.1703   -0.7324    0.0971 C.2       1 <0>         0.1853
      4 N1         -1.1727   -2.0467   -0.1098 N.2       1 <0>        -0.5253
      5 C4         -0.0474   -2.7244   -0.2311 C.2       1 <0>         0.3686
      6 N2          1.1612   -2.1021   -0.1484 N.am      1 <0>        -0.6150
      7 H1          1.9798   -2.6144   -0.2397 H         1 <0>         0.4209
      8 C5          1.2157   -0.7684    0.0549 C.2       1 <0>         0.5336
      9 O1          2.2897   -0.1938    0.1261 O.2       1 <0>        -0.5286
     10 S1         -0.1090   -4.4640   -0.5042 S.3       1 <0>        -0.0182
     11 C6         -1.8832   -4.8399   -0.5403 C.3       1 <0>        -0.0614
     12 C7         -2.5256   -4.1535   -1.7474 C.3       1 <0>        -0.1511
     13 C8         -2.0818   -6.3531   -0.6487 C.3       1 <0>        -0.1396
     14 C9         -2.4748    0.0101    0.2315 C.3       1 <0>        -0.0324
     15 C10        -3.0822   -0.2814    1.5795 C.ar      1 <0>        -0.1553
     16 C11        -3.8395   -1.4251    1.7653 C.ar      1 <0>         0.1481
     17 C12        -4.3972   -1.6919    3.0043 C.ar      1 <0>        -0.1674
     18 C13        -4.1978   -0.8168    4.0553 C.ar      1 <0>        -0.0588
     19 C14        -3.4422    0.3257    3.8709 C.ar      1 <0>        -0.1649
     20 C15        -2.8785    0.5914    2.6343 C.ar      1 <0>         0.1356
     21 F1         -2.1349    1.7052    2.4559 F         1 <0>        -0.1235
     22 F2         -4.0349   -2.2804    0.7380 F         1 <0>        -0.1175
     23 H2          1.0495    1.8010    0.3639 H         1 <0>         0.0774
     24 H3         -0.5814    1.9260   -0.3381 H         1 <0>         0.0705
     25 H4         -0.3834    1.6500    1.4091 H         1 <0>         0.0801
     26 H5         -2.3503   -4.4768    0.3752 H         1 <0>         0.1082
     27 H6         -2.0585   -4.5167   -2.6629 H         1 <0>         0.0616
     28 H7         -3.5917   -4.3795   -1.7691 H         1 <0>         0.0702
     29 H8         -2.3841   -3.0755   -1.6702 H         1 <0>         0.0786
     30 H9         -1.6242   -6.8421    0.2113 H         1 <0>         0.0678
     31 H10        -3.1479   -6.5790   -0.6703 H         1 <0>         0.0845
     32 H11        -1.6148   -6.7162   -1.5641 H         1 <0>         0.0681
     33 H12        -2.2946    1.0810    0.1380 H         1 <0>         0.1072
     34 H13        -3.1592   -0.3130   -0.5530 H         1 <0>         0.1053
     35 H14        -4.9884   -2.5839    3.1494 H         1 <0>         0.1438
     36 H15        -4.6331   -1.0256    5.0214 H         1 <0>         0.1451
     37 H16        -3.2877    1.0092    4.6927 H         1 <0>         0.1447
@<TRIPOS>BOND
     1    1    2 1
     2    1   23 1
     3    1   24 1
     4    1   25 1
     5    2    8 1
     6    2    3 2
     7    3    4 1
     8    3   14 1
     9    4    5 2
    10    5    6 1
    11    5   10 1
    12    6    7 1
    13    6    8 am
    14    8    9 2
    15   10   11 1
    16   11   12 1
    17   11   13 1
    18   11   26 1
    19   12   27 1
    20   12   28 1
    21   12   29 1
    22   13   30 1
    23   13   31 1
    24   13   32 1
    25   14   15 1
    26   14   33 1
    27   14   34 1
    28   15   20 ar
    29   15   16 ar
    30   16   17 ar
    31   16   22 1
    32   17   18 ar
    33   17   35 1
    34   18   19 ar
    35   18   36 1
    36   19   20 ar
    37   19   37 1
    38   20   21 1
@<TRIPOS>MOLECULE
CHEMBL83140__1
   37    38     0     0     0
SMALL
USER_CHARGES

@<TRIPOS>ATOM
      1 C1          0.3700    1.2108   -0.8853 C.3       1 <0>        -0.1033
      2 C2         -0.7796    1.8077   -1.6554 C.2       1 <0>        -0.2297
      3 C3         -1.1922    3.0685   -1.4043 C.2       1 <0>         0.1550
      4 N1         -2.2363    3.5842   -2.1170 N.pl3     1 <0>        -0.5942
      5 C4         -2.8553    2.8362   -3.0700 C.2       1 <0>         0.3992
      6 N2         -2.4657    1.6035   -3.3283 N.2       1 <0>        -0.5818
      7 H1         -2.5387    4.4892   -1.9426 H         1 <0>         0.4232
      8 C5         -1.4418    1.0560   -2.6598 C.2       1 <0>         0.5176
      9 O1         -1.0842   -0.0851   -2.9099 O.2       1 <0>        -0.5045
     10 S1         -4.2010    3.5265   -3.9739 S.3       1 <0>        -0.0230
     11 C6         -4.6971    2.1981   -5.1052 C.3       1 <0>        -0.0601
     12 C7         -5.2337    1.0144   -4.2978 C.3       1 <0>        -0.1545
     13 C8         -5.7894    2.7107   -6.0460 C.3       1 <0>        -0.1388
     14 C9         -0.5078    3.8975   -0.3482 C.3       1 <0>        -0.0472
     15 C10         0.3512    4.9442   -1.0097 C.ar      1 <0>        -0.1639
     16 C11         1.7009    4.7087   -1.2074 C.ar      1 <0>         0.1425
     17 C12         2.4893    5.6712   -1.8153 C.ar      1 <0>        -0.1567
     18 C13         1.9291    6.8665   -2.2246 C.ar      1 <0>        -0.0556
     19 C14         0.5817    7.1029   -2.0273 C.ar      1 <0>        -0.1561
     20 C15        -0.2099    6.1394   -1.4252 C.ar      1 <0>         0.1278
     21 F1         -1.5281    6.3682   -1.2379 F         1 <0>        -0.1307
     22 F2          2.2488    3.5406   -0.8070 F         1 <0>        -0.1195
     23 H2          0.4916    0.1647   -1.1665 H         1 <0>         0.0826
     24 H3          1.2845    1.7575   -1.1156 H         1 <0>         0.0789
     25 H4          0.1656    1.2783    0.1832 H         1 <0>         0.0693
     26 H5         -3.8348    1.8779   -5.6900 H         1 <0>         0.1092
     27 H6         -6.0961    1.3346   -3.7130 H         1 <0>         0.0625
     28 H7         -5.5318    0.2162   -4.9775 H         1 <0>         0.0712
     29 H8         -4.4556    0.6492   -3.6275 H         1 <0>         0.0806
     30 H9         -5.4071    3.5540   -6.6212 H         1 <0>         0.0682
     31 H10        -6.0875    1.9125   -6.7257 H         1 <0>         0.0854
     32 H11        -6.6517    3.0309   -5.4612 H         1 <0>         0.0684
     33 H12        -1.2584    4.3841    0.2746 H         1 <0>         0.1072
     34 H13         0.1164    3.2536    0.2713 H         1 <0>         0.1240
     35 H14         3.5424    5.4879   -1.9694 H         1 <0>         0.1489
     36 H15         2.5448    7.6166   -2.6987 H         1 <0>         0.1495
     37 H16         0.1452    8.0376   -2.3469 H         1 <0>         0.1485
@<TRIPOS>BOND
     1    1   23 1
     2    1   24 1
     3    1   25 1
     4    1    2 1
     5    2    8 1
     6    2    3 2
     7    3   14 1
     8    3    4 1
     9    4    5 1
    10    4    7 1
    11    5   10 1
    12    5    6 2
    13    6    8 1
    14    8    9 2
    15   10   11 1
    16   11   12 1
    17   11   13 1
    18   11   26 1
    19   12   27 1
    20   12   28 1
    21   12   29 1
    22   13   30 1
    23   13   31 1
    24   13   32 1
    25   14   15 1
    26   14   33 1
    27   14   34 1
    28   15   20 ar
    29   15   16 ar
    30   16   17 ar
    31   16   22 1
    32   17   18 ar
    33   17   35 1
    34   18   19 ar
    35   18   36 1
    36   19   20 ar
    37   19   37 1
    38   20   21 1
@<TRIPOS>MOLECULE
CHEMBL135509
   39    41     0     0     0
SMALL
USER_CHARGES

@<TRIPOS>ATOM
      1 C1          1.1302   -0.7104   -0.0236 C.ar      1 <0>        -0.0233
      2 C2          2.3504   -0.0579   -0.0282 C.ar      1 <0>        -0.1853
      3 C3          2.3742    1.3320   -0.0180 C.ar      1 <0>         0.3413
      4 N1          1.2468    2.0257   -0.0042 N.ar      1 <0>        -0.4063
      5 C4          0.0689    1.4319    0.0004 C.ar      1 <0>         0.1553
      6 C5         -0.0295    0.0536   -0.0090 C.ar      1 <0>        -0.1612
      7 Br1        -1.7252   -0.7834   -0.0028 Br        1 <0>        -0.0261
      8 N2          3.5966    2.0016   -0.0220 N.pl3     1 <0>        -0.6094
      9 C6          3.6285    3.3456   -0.1173 C.2       1 <0>         0.5194
     10 S1          2.1688    4.2399   -0.0988 S.2       1 <0>        -0.4822
     11 N3          4.8096    3.9855   -0.2271 N.pl3     1 <0>        -0.6943
     12 C7          4.8442    5.4464   -0.3306 C.3       1 <0>         0.1311
     13 C8          6.2962    5.9154   -0.4436 C.3       1 <0>        -0.1283
     14 C9          6.3319    7.4182   -0.5501 C.cat     1 <0>         0.5198
     15 N4          6.2821    8.0435   -1.7022 N.pl3     1 <0>        -0.6226
     16 C10         6.3359    9.4957   -1.4730 C.3       1 <0>         0.1333
     17 C11         7.5138   10.0159   -2.2645 C.2       1 <0>        -0.1766
     18 C12         8.5584   10.5310   -1.6355 C.2       1 <0>        -0.0824
     19 C13         8.6468   10.6319   -0.1799 C.2       1 <0>        -0.0828
     20 C14         7.6902   10.2165    0.6352 C.2       1 <0>        -0.1768
     21 C15         6.4296    9.6028    0.0705 C.3       1 <0>         0.1325
     22 N5          6.4095    8.1968    0.5028 N.pl3     1 <0>        -0.6221
     23 H1          1.0807   -1.7892   -0.0357 H         1 <0>         0.1523
     24 H2          3.2720   -0.6209   -0.0391 H         1 <0>         0.1434
     25 H3         -0.8300    2.0305    0.0122 H         1 <0>         0.1716
     26 H4          4.4244    1.5002    0.0438 H         1 <0>         0.4130
     27 H5          5.6366    3.4788   -0.2376 H         1 <0>         0.4004
     28 H6          4.2909    5.7612   -1.2154 H         1 <0>         0.1020
     29 H7          4.3890    5.8845    0.5575 H         1 <0>         0.1019
     30 H8          6.8495    5.6006    0.4412 H         1 <0>         0.1334
     31 H9          6.7515    5.4773   -1.3317 H         1 <0>         0.1335
     32 H10         5.4126    9.9591   -1.8205 H         1 <0>         0.1472
     33 H11         7.5032    9.9671   -3.3433 H         1 <0>         0.1517
     34 H12         9.3857   10.8948   -2.2268 H         1 <0>         0.1387
     35 H13         9.5364   11.0663    0.2517 H         1 <0>         0.1386
     36 H14         7.8105   10.3160    1.7039 H         1 <0>         0.1516
     37 H15         5.5575   10.1292    0.4584 H         1 <0>         0.1475
     38 H16         6.4500    7.8927    1.4230 H         1 <0>         0.4602
     39 H17         6.2199    7.6151   -2.5702 H         1 <0>         0.4602
@<TRIPOS>BOND
     1    1    6 ar
     2    1    2 ar
     3    1   23 1
     4    2    3 ar
     5    2   24 1
     6    3    4 ar
     7    3    8 1
     8    4    5 ar
     9    5    6 ar
    10    5   25 1
    11    6    7 1
    12    8    9 1
    13    8   26 1
    14    9   10 2
    15    9   11 1
    16   11   12 1
    17   11   27 1
    18   12   13 1
    19   12   28 1
    20   12   29 1
    21   13   14 1
    22   13   30 1
    23   13   31 1
    24   14   22 1
    25   14   15 2
    26   15   16 1
    27   15   39 1
    28   16   21 1
    29   16   17 1
    30   16   32 1
    31   17   18 2
    32   17   33 1
    33   18   19 1
    34   18   34 1
    35   19   20 2
    36   19   35 1
    37   20   21 1
    38   20   36 1
    39   21   22 1
    40   21   37 1
    41   22   38 1
@<TRIPOS>MOLECULE
CHEMBL135509__1
   39    41     0     0     0
SMALL
USER_CHARGES

@<TRIPOS>ATOM
      1 C1          1.1302   -0.7104   -0.0236 C.ar      1 <0>        -0.0233
      2 C2          2.3504   -0.0579   -0.0282 C.ar      1 <0>        -0.1851
      3 C3          2.3742    1.3320   -0.0180 C.ar      1 <0>         0.3412
      4 N1          1.2468    2.0257   -0.0042 N.ar      1 <0>        -0.4063
      5 C4          0.0689    1.4319    0.0004 C.ar      1 <0>         0.1553
      6 C5         -0.0295    0.0536   -0.0090 C.ar      1 <0>        -0.1611
      7 Br1        -1.7252   -0.7834   -0.0028 Br        1 <0>        -0.0260
      8 N2          3.5966    2.0016   -0.0220 N.pl3     1 <0>        -0.6092
      9 C6          3.6285    3.3456   -0.1173 C.2       1 <0>         0.5194
     10 S1          2.1688    4.2399   -0.0988 S.2       1 <0>        -0.4818
     11 N3          4.8096    3.9855   -0.2271 N.pl3     1 <0>        -0.6942
     12 C7          4.8442    5.4464   -0.3306 C.3       1 <0>         0.1312
     13 C8          6.2962    5.9154   -0.4436 C.3       1 <0>        -0.1299
     14 C9          6.3319    7.4182   -0.5501 C.cat     1 <0>         0.5378
     15 N4          6.2816    8.0587   -1.7165 N.pl3     1 <0>        -0.6156
     16 C10         6.0481    9.4514   -1.4024 C.3       1 <0>         0.1090
     17 C11         6.6779   10.5475   -2.1936 C.2       1 <0>        -0.1677
     18 C12         6.7122   11.7337   -1.5401 C.2       1 <0>        -0.0928
     19 C13         6.1492   11.8420   -0.1792 C.2       1 <0>        -0.0932
     20 C14         6.1342   10.7594    0.6349 C.2       1 <0>        -0.1673
     21 C15         6.7136    9.5360    0.0081 C.3       1 <0>         0.1112
     22 N5          6.4106    8.2138    0.5148 N.pl3     1 <0>        -0.6172
     23 H1          1.0807   -1.7892   -0.0357 H         1 <0>         0.1523
     24 H2          3.2720   -0.6209   -0.0391 H         1 <0>         0.1435
     25 H3         -0.8300    2.0305    0.0122 H         1 <0>         0.1716
     26 H4          4.4244    1.5002    0.0438 H         1 <0>         0.4131
     27 H5          5.6366    3.4788   -0.2376 H         1 <0>         0.4006
     28 H6          4.2909    5.7612   -1.2154 H         1 <0>         0.1032
     29 H7          4.3890    5.8845    0.5575 H         1 <0>         0.1018
     30 H8          6.8495    5.6006    0.4412 H         1 <0>         0.1366
     31 H9          6.7515    5.4773   -1.3317 H         1 <0>         0.1369
     32 H10         4.9770    9.6338   -1.3147 H         1 <0>         0.1338
     33 H11         7.0691   10.4090   -3.1907 H         1 <0>         0.1579
     34 H12         7.1512   12.5993   -2.0139 H         1 <0>         0.1495
     35 H13         5.7499   12.7839    0.1669 H         1 <0>         0.1498
     36 H14         5.7414   10.7802    1.6407 H         1 <0>         0.1586
     37 H15         7.7918    9.6534   -0.1003 H         1 <0>         0.1316
     38 H16         6.2908    7.9582    1.4428 H         1 <0>         0.4626
     39 H17         6.3817    7.6697   -2.5994 H         1 <0>         0.4623
@<TRIPOS>BOND
     1    1    6 ar
     2    1    2 ar
     3    1   23 1
     4    2    3 ar
     5    2   24 1
     6    3    4 ar
     7    3    8 1
     8    4    5 ar
     9    5    6 ar
    10    5   25 1
    11    6    7 1
    12    8    9 1
    13    8   26 1
    14    9   10 2
    15    9   11 1
    16   11   12 1
    17   11   27 1
    18   12   13 1
    19   12   28 1
    20   12   29 1
    21   13   14 1
    22   13   30 1
    23   13   31 1
    24   14   22 1
    25   14   15 2
    26   15   16 1
    27   15   39 1
    28   16   21 1
    29   16   17 1
    30   16   32 1
    31   17   18 2
    32   17   33 1
    33   18   19 1
    34   18   34 1
    35   19   20 2
    36   19   35 1
    37   20   21 1
    38   20   36 1
    39   21   22 1
    40   21   37 1
    41   22   38 1
@<TRIPOS>MOLECULE
CHEMBL135509__2
   39    41     0     0     0
SMALL
USER_CHARGES

@<TRIPOS>ATOM
      1 C1          1.1302   -0.7104   -0.0236 C.ar      1 <0>        -0.0233
      2 C2          2.3504   -0.0579   -0.0282 C.ar      1 <0>        -0.1851
      3 C3          2.3742    1.3320   -0.0180 C.ar      1 <0>         0.3412
      4 N1          1.2468    2.0257   -0.0042 N.ar      1 <0>        -0.4063
      5 C4          0.0689    1.4319    0.0004 C.ar      1 <0>         0.1553
      6 C5         -0.0295    0.0536   -0.0090 C.ar      1 <0>        -0.1611
      7 Br1        -1.7252   -0.7834   -0.0028 Br        1 <0>        -0.0260
      8 N2          3.5966    2.0016   -0.0220 N.pl3     1 <0>        -0.6092
      9 C6          3.6285    3.3456   -0.1173 C.2       1 <0>         0.5194
     10 S1          2.1688    4.2399   -0.0988 S.2       1 <0>        -0.4818
     11 N3          4.8096    3.9855   -0.2271 N.pl3     1 <0>        -0.6942
     12 C7          4.8442    5.4464   -0.3306 C.3       1 <0>         0.1313
     13 C8          6.2962    5.9154   -0.4436 C.3       1 <0>        -0.1297
     14 C9          6.3319    7.4182   -0.5501 C.cat     1 <0>         0.5376
     15 N4          6.2816    8.0587   -1.7165 N.pl3     1 <0>        -0.6167
     16 C10         6.6271    9.4352   -1.4362 C.3       1 <0>         0.1107
     17 C11         5.9713   10.5672   -2.1523 C.2       1 <0>        -0.1670
     18 C12         6.0793   11.7514   -1.5031 C.2       1 <0>        -0.0933
     19 C13         6.8020   11.8238   -0.2174 C.2       1 <0>        -0.0927
     20 C14         6.8515   10.7394    0.5929 C.2       1 <0>        -0.1676
     21 C15         6.1360    9.5521    0.0418 C.3       1 <0>         0.1092
     22 N5          6.4106    8.2138    0.5148 N.pl3     1 <0>        -0.6155
     23 H1          1.0807   -1.7892   -0.0357 H         1 <0>         0.1523
     24 H2          3.2720   -0.6209   -0.0391 H         1 <0>         0.1435
     25 H3         -0.8300    2.0305    0.0122 H         1 <0>         0.1716
     26 H4          4.4244    1.5002    0.0438 H         1 <0>         0.4131
     27 H5          5.6366    3.4788   -0.2376 H         1 <0>         0.4006
     28 H6          4.2909    5.7612   -1.2154 H         1 <0>         0.1019
     29 H7          4.3890    5.8845    0.5575 H         1 <0>         0.1031
     30 H8          6.8495    5.6006    0.4412 H         1 <0>         0.1369
     31 H9          6.7515    5.4773   -1.3317 H         1 <0>         0.1367
     32 H10         7.7095    9.5576   -1.4744 H         1 <0>         0.1310
     33 H11         5.4601   10.4540   -3.0969 H         1 <0>         0.1586
     34 H12         5.6375   12.6417   -1.9257 H         1 <0>         0.1498
     35 H13         7.2911   12.7407    0.0766 H         1 <0>         0.1494
     36 H14         7.3601   10.7347    1.5457 H         1 <0>         0.1579
     37 H15         5.0607    9.7296    0.0594 H         1 <0>         0.1336
     38 H16         6.6136    7.9492    1.4257 H         1 <0>         0.4622
     39 H17         6.0586    7.6786   -2.5806 H         1 <0>         0.4626
@<TRIPOS>BOND
     1    1    6 ar
     2    1    2 ar
     3    1   23 1
     4    2    3 ar
     5    2   24 1
     6    3    4 ar
     7    3    8 1
     8    4    5 ar
     9    5    6 ar
    10    5   25 1
    11    6    7 1
    12    8    9 1
    13    8   26 1
    14    9   10 2
    15    9   11 1
    16   11   12 1
    17   11   27 1
    18   12   13 1
    19   12   28 1
    20   12   29 1
    21   13   14 1
    22   13   30 1
    23   13   31 1
    24   14   22 1
    25   14   15 2
    26   15   16 1
    27   15   39 1
    28   16   21 1
    29   16   17 1
    30   16   32 1
    31   17   18 2
    32   17   33 1
    33   18   19 1
    34   18   34 1
    35   19   20 2
    36   19   35 1
    37   20   21 1
    38   20   36 1
    39   21   22 1
    40   21   37 1
    41   22   38 1
@<TRIPOS>MOLECULE
CHEMBL135509__3
   39    41     0     0     0
SMALL
USER_CHARGES

@<TRIPOS>ATOM
      1 C1          1.1302   -0.7104   -0.0236 C.ar      1 <0>        -0.0233
      2 C2          2.3504   -0.0579   -0.0282 C.ar      1 <0>        -0.1853
      3 C3          2.3742    1.3320   -0.0180 C.ar      1 <0>         0.3414
      4 N1          1.2468    2.0257   -0.0042 N.ar      1 <0>        -0.4063
      5 C4          0.0689    1.4319    0.0004 C.ar      1 <0>         0.1552
      6 C5         -0.0295    0.0536   -0.0090 C.ar      1 <0>        -0.1612
      7 Br1        -1.7252   -0.7834   -0.0028 Br        1 <0>        -0.0262
      8 N2          3.5966    2.0016   -0.0220 N.pl3     1 <0>        -0.6095
      9 C6          3.6285    3.3456   -0.1173 C.2       1 <0>         0.5194
     10 S1          2.1688    4.2399   -0.0988 S.2       1 <0>        -0.4821
     11 N3          4.8096    3.9855   -0.2271 N.pl3     1 <0>        -0.6941
     12 C7          4.8442    5.4464   -0.3306 C.3       1 <0>         0.1317
     13 C8          6.2962    5.9154   -0.4436 C.3       1 <0>        -0.1285
     14 C9          6.3319    7.4182   -0.5501 C.cat     1 <0>         0.5192
     15 N4          6.2821    8.0435   -1.7022 N.pl3     1 <0>        -0.6227
     16 C10         6.3360    9.4957   -1.4730 C.3       1 <0>         0.1340
     17 C11         5.1049   10.0832   -2.1238 C.2       1 <0>        -0.1790
     18 C12         4.1708   10.6534   -1.3793 C.2       1 <0>        -0.0788
     19 C13         4.2580   10.7544    0.0765 C.2       1 <0>        -0.0793
     20 C14         5.2788   10.2846    0.7760 C.2       1 <0>        -0.1795
     21 C15         6.4287    9.6029    0.0706 C.3       1 <0>         0.1333
     22 N5          6.4095    8.1968    0.5028 N.pl3     1 <0>        -0.6220
     23 H1          1.0807   -1.7892   -0.0357 H         1 <0>         0.1523
     24 H2          3.2720   -0.6209   -0.0391 H         1 <0>         0.1435
     25 H3         -0.8300    2.0305    0.0122 H         1 <0>         0.1714
     26 H4          4.4244    1.5002    0.0438 H         1 <0>         0.4129
     27 H5          5.6366    3.4788   -0.2376 H         1 <0>         0.4003
     28 H6          4.2909    5.7612   -1.2154 H         1 <0>         0.1014
     29 H7          4.3890    5.8845    0.5575 H         1 <0>         0.1013
     30 H8          6.8495    5.6006    0.4412 H         1 <0>         0.1337
     31 H9          6.7515    5.4773   -1.3317 H         1 <0>         0.1339
     32 H10         7.2370    9.9081   -1.9271 H         1 <0>         0.1451
     33 H11         4.9874   10.0380   -3.1964 H         1 <0>         0.1516
     34 H12         3.3018   11.0646   -1.8714 H         1 <0>         0.1394
     35 H13         3.4502   11.2362    0.6072 H         1 <0>         0.1393
     36 H14         5.2900   10.3884    1.8509 H         1 <0>         0.1516
     37 H15         7.3679   10.0787    0.3526 H         1 <0>         0.1460
     38 H16         6.4505    7.8927    1.4230 H         1 <0>         0.4600
     39 H17         6.2199    7.6151   -2.5702 H         1 <0>         0.4600
@<TRIPOS>BOND
     1    1    6 ar
     2    1    2 ar
     3    1   23 1
     4    2    3 ar
     5    2   24 1
     6    3    4 ar
     7    3    8 1
     8    4    5 ar
     9    5    6 ar
    10    5   25 1
    11    6    7 1
    12    8    9 1
    13    8   26 1
    14    9   10 2
    15    9   11 1
    16   11   12 1
    17   11   27 1
    18   12   13 1
    19   12   28 1
    20   12   29 1
    21   13   14 1
    22   13   30 1
    23   13   31 1
    24   14   22 1
    25   14   15 2
    26   15   16 1
    27   15   39 1
    28   16   21 1
    29   16   17 1
    30   16   32 1
    31   17   18 2
    32   17   33 1
    33   18   19 1
    34   18   34 1
    35   19   20 2
    36   19   35 1
    37   20   21 1
    38   20   36 1
    39   21   22 1
    40   21   37 1
    41   22   38 1
@<TRIPOS>MOLECULE
CHEMBL162118
   46    49     0     0     0
SMALL
USER_CHARGES

@<TRIPOS>ATOM
      1 C1         -0.0187    1.5258    0.0104 C.3       1 <0>        -0.1721
      2 C2          0.0021   -0.0041    0.0020 C.3       1 <0>         0.1349
      3 N1          0.7106   -0.4894    1.1889 N.pl3     1 <0>        -0.5764
      4 C3          2.0788   -0.6988    1.1513 C.ar      1 <0>         0.4255
      5 C4          2.9157   -0.0009    2.0375 C.ar      1 <0>        -0.2003
      6 C5          4.2850   -0.2896    2.0388 C.ar      1 <0>         0.0213
      7 C6          4.7626   -1.2214    1.1333 C.ar      1 <0>        -0.1530
      8 C7          3.8826   -1.8342    0.2602 C.ar      1 <0>         0.1763
      9 N2          2.5920   -1.5643    0.2902 N.ar      1 <0>        -0.4927
     10 C8          6.2294   -1.5656    1.0998 C.3       1 <0>        -0.0641
     11 S1          6.5518   -2.9492    2.2277 S.3       1 <0>        -0.0819
     12 C9          8.2851   -3.2274    2.0765 C.ar      1 <0>        -0.0460
     13 C10         9.0649   -2.4422    1.2263 C.ar      1 <0>        -0.1897
     14 C11        10.4177   -2.6921    1.1371 C.ar      1 <0>         0.1211
     15 N3         10.9755   -3.6588    1.8422 N.ar      1 <0>        -0.4900
     16 C12        10.2725   -4.4232    2.6573 C.ar      1 <0>         0.1196
     17 C13         8.9151   -4.2348    2.8083 C.ar      1 <0>        -0.1550
     18 C14         2.3849    1.0420    2.9194 C.2       1 <0>         0.5815
     19 O1          3.0719    2.0317    3.0831 O.2       1 <0>        -0.5192
     20 N4          1.2224    1.0023    3.5540 N.am      1 <0>        -0.6425
     21 C15         0.2974   -0.0407    3.5350 C.ar      1 <0>         0.0887
     22 C16         0.0164   -0.7405    2.3715 C.ar      1 <0>         0.3819
     23 N5         -0.9210   -1.6798    2.3740 N.ar      1 <0>        -0.4731
     24 C17        -1.5808   -2.0050    3.4699 C.ar      1 <0>         0.1918
     25 C18        -1.3176   -1.3733    4.6697 C.ar      1 <0>        -0.1394
     26 C19        -0.3684   -0.3804    4.7081 C.ar      1 <0>        -0.0336
     27 C20        -0.0619    0.3317    6.0004 C.3       1 <0>        -0.1226
     28 Cl1        -2.7960   -3.2429    3.4024 Cl        1 <0>        -0.0153
     29 H1          1.0039    1.9031    0.0027 H         1 <0>         0.0552
     30 H2         -0.5459    1.8868   -0.8726 H         1 <0>         0.0747
     31 H3         -0.5289    1.8773    0.9072 H         1 <0>         0.0554
     32 H4         -1.0205   -0.3814    0.0098 H         1 <0>         0.0861
     33 H5          0.5123   -0.3556   -0.8948 H         1 <0>         0.0869
     34 H6          4.9532    0.2032    2.7295 H         1 <0>         0.1529
     35 H7          4.2590   -2.5464   -0.4592 H         1 <0>         0.1714
     36 H8          6.5129   -1.8494    0.0863 H         1 <0>         0.1088
     37 H9          6.8131   -0.6993    1.4112 H         1 <0>         0.1066
     38 H10         8.6148   -1.6502    0.6461 H         1 <0>         0.1356
     39 H11        11.0291   -2.0896    0.4817 H         1 <0>         0.1602
     40 H12        10.7678   -5.2036    3.2160 H         1 <0>         0.1628
     41 H13         8.3467   -4.8610    3.4800 H         1 <0>         0.1408
     42 H14         0.9908    1.7792    4.0866 H         1 <0>         0.4153
     43 H15        -1.8496   -1.6579    5.5655 H         1 <0>         0.1588
     44 H16        -0.7146    1.1989    6.1010 H         1 <0>         0.0885
     45 H17        -0.2277   -0.3468    6.8373 H         1 <0>         0.0873
     46 H18         0.9781    0.6580    5.9977 H         1 <0>         0.0768
@<TRIPOS>BOND
     1    1    2 1
     2    1   29 1
     3    1   30 1
     4    1   31 1
     5    2    3 1
     6    2   32 1
     7    2   33 1
     8    3   22 1
     9    3    4 1
    10    4    9 ar
    11    4    5 ar
    12    5    6 ar
    13    5   18 1
    14    6    7 ar
    15    6   34 1
    16    7    8 ar
    17    7   10 1
    18    8    9 ar
    19    8   35 1
    20   10   11 1
    21   10   36 1
    22   10   37 1
    23   11   12 1
    24   12   17 ar
    25   12   13 ar
    26   13   14 ar
    27   13   38 1
    28   14   15 ar
    29   14   39 1
    30   15   16 ar
    31   16   17 ar
    32   16   40 1
    33   17   41 1
    34   18   19 2
    35   18   20 am
    36   20   21 1
    37   20   42 1
    38   21   26 ar
    39   21   22 ar
    40   22   23 ar
    41   23   24 ar
    42   24   25 ar
    43   24   28 1
    44   25   26 ar
    45   25   43 1
    46   26   27 1
    47   27   44 1
    48   27   45 1
    49   27   46 1
@<TRIPOS>MOLECULE
CHEMBL436546
   51    53     0     0     0
SMALL
USER_CHARGES

@<TRIPOS>ATOM
      1 C1         -0.3035    1.0808   -0.3365 C.3       1 <0>        -0.1505
      2 C2         -0.0967   -0.4190   -0.1158 C.3       1 <0>        -0.0249
      3 C3          0.7036   -1.0006   -1.2830 C.3       1 <0>        -0.1563
      4 C4          0.6585   -0.6382    1.1697 C.2       1 <0>        -0.2417
      5 C5          0.0806   -1.2929    2.1995 C.2       1 <0>         0.1954
      6 N1          0.7806   -1.4833    3.3598 N.am      1 <0>        -0.5428
      7 C6          2.0390   -1.0238    3.4842 C.2       1 <0>         0.7006
      8 O1          2.6426   -1.2037    4.5242 O.2       1 <0>        -0.5234
      9 N2          2.6393   -0.3684    2.4734 N.am      1 <0>        -0.6612
     10 H1          3.5473   -0.0443    2.5796 H         1 <0>         0.4314
     11 C7          1.9854   -0.1656    1.3117 C.2       1 <0>         0.5583
     12 O2          2.5296    0.4229    0.3948 O.2       1 <0>        -0.5015
     13 C8          0.1537   -2.1936    4.4772 C.3       1 <0>         0.2674
     14 O3         -0.1906   -1.2595    5.5023 O.3       1 <0>        -0.3602
     15 C9         -1.3443   -0.4702    5.2058 C.3       1 <0>         0.0909
     16 C10        -1.5471    0.5519    6.2945 C.ar      1 <0>        -0.0960
     17 C11        -2.3208    0.2427    7.3975 C.ar      1 <0>        -0.0962
     18 C12        -2.5068    1.1802    8.3961 C.ar      1 <0>        -0.1222
     19 C13        -1.9186    2.4269    8.2920 C.ar      1 <0>        -0.1094
     20 C14        -1.1441    2.7358    7.1895 C.ar      1 <0>        -0.1215
     21 C15        -0.9546    1.7968    6.1929 C.ar      1 <0>        -0.0957
     22 C16        -1.3287   -1.8111    2.0719 C.3       1 <0>        -0.0598
     23 C17        -1.2997   -3.2183    1.5333 C.ar      1 <0>        -0.0926
     24 C18        -1.2082   -3.4352    0.1711 C.ar      1 <0>        -0.1094
     25 C19        -1.1816   -4.7260   -0.3229 C.ar      1 <0>        -0.1131
     26 C20        -1.2460   -5.7998    0.5452 C.ar      1 <0>        -0.1126
     27 C21        -1.3366   -5.5829    1.9075 C.ar      1 <0>        -0.1135
     28 C22        -1.3589   -4.2921    2.4018 C.ar      1 <0>        -0.1189
     29 H2          0.6655    1.5764   -0.3953 H         1 <0>         0.0692
     30 H3         -0.8497    1.2394   -1.2663 H         1 <0>         0.0613
     31 H4         -0.8736    1.4951    0.4950 H         1 <0>         0.0511
     32 H5         -1.0657   -0.9146   -0.0570 H         1 <0>         0.0843
     33 H6          1.6726   -0.5050   -1.3418 H         1 <0>         0.0769
     34 H7          0.8509   -2.0691   -1.1258 H         1 <0>         0.0529
     35 H8          0.1573   -0.8421   -2.2128 H         1 <0>         0.0600
     36 H9         -0.7473   -2.6978    4.1276 H         1 <0>         0.0995
     37 H10         0.8508   -2.9305    4.8762 H         1 <0>         0.1341
     38 H11        -1.2015    0.0382    4.2522 H         1 <0>         0.0592
     39 H12        -2.2206   -1.1157    5.1457 H         1 <0>         0.0669
     40 H13        -2.7804   -0.7313    7.4788 H         1 <0>         0.1242
     41 H14        -3.1119    0.9389    9.2575 H         1 <0>         0.1259
     42 H15        -2.0645    3.1596    9.0719 H         1 <0>         0.1249
     43 H16        -0.6848    3.7099    7.1080 H         1 <0>         0.1250
     44 H17        -0.3465    2.0368    5.3333 H         1 <0>         0.1187
     45 H18        -1.8076   -1.8066    3.0510 H         1 <0>         0.0933
     46 H19        -1.8902   -1.1726    1.3899 H         1 <0>         0.1197
     47 H20        -1.1579   -2.5963   -0.5071 H         1 <0>         0.1332
     48 H21        -1.1109   -4.8955   -1.3872 H         1 <0>         0.1267
     49 H22        -1.2260   -6.8083    0.1592 H         1 <0>         0.1252
     50 H23        -1.3873   -6.4218    2.5857 H         1 <0>         0.1264
     51 H24        -1.4259   -4.1226    3.4663 H         1 <0>         0.1209
@<TRIPOS>BOND
     1    1    2 1
     2    1   29 1
     3    1   30 1
     4    1   31 1
     5    2    3 1
     6    2    4 1
     7    2   32 1
     8    3   33 1
     9    3   34 1
    10    3   35 1
    11    4   11 1
    12    4    5 2
    13    5    6 1
    14    5   22 1
    15    6    7 am
    16    6   13 1
    17    7    8 2
    18    7    9 am
    19    9   10 1
    20    9   11 am
    21   11   12 2
    22   13   14 1
    23   13   36 1
    24   13   37 1
    25   14   15 1
    26   15   16 1
    27   15   38 1
    28   15   39 1
    29   16   21 ar
    30   16   17 ar
    31   17   18 ar
    32   17   40 1
    33   18   19 ar
    34   18   41 1
    35   19   20 ar
    36   19   42 1
    37   20   21 ar
    38   20   43 1
    39   21   44 1
    40   22   23 1
    41   22   45 1
    42   22   46 1
    43   23   28 ar
    44   23   24 ar
    45   24   25 ar
    46   24   47 1
    47   25   26 ar
    48   25   48 1
    49   26   27 ar
    50   26   49 1
    51   27   28 ar
    52   27   50 1
    53   28   51 1
@<TRIPOS>MOLECULE
CHEMBL83888
   49    51     0     0     0
SMALL
USER_CHARGES

@<TRIPOS>ATOM
      1 C1         -0.0187    1.5258    0.0104 C.3       1 <0>        -0.1486
      2 C2          0.0021   -0.0041    0.0020 C.3       1 <0>        -0.0700
      3 C3          0.7309   -0.5033    1.2229 C.2       1 <0>        -0.1278
      4 C4          2.1292   -0.6125    1.2086 C.2       1 <0>        -0.1438
      5 C5          2.7754   -1.0669    2.3251 C.2       1 <0>         0.1091
      6 C6          2.0184   -1.4151    3.4655 C.2       1 <0>         0.5133
      7 N1          0.6770   -1.2973    3.4432 N.am      1 <0>        -0.5928
      8 C7          0.0370   -0.8403    2.3334 C.2       1 <0>         0.0839
      9 C8         -1.4647   -0.7135    2.3396 C.3       1 <0>        -0.1183
     10 O1          2.5794   -1.8227    4.4701 O.2       1 <0>        -0.5518
     11 N2          4.1707   -1.1860    2.3373 N.pl3     1 <0>        -0.7205
     12 C9          4.8538   -1.6737    3.5380 C.3       1 <0>         0.1968
     13 C10         6.3401   -1.7073    3.2917 C.ar      1 <0>        -0.1814
     14 C11         7.1682   -0.7546    3.8541 C.ar      1 <0>        -0.0255
     15 C12         8.5374   -0.8194    3.6055 C.ar      1 <0>        -0.1659
     16 C13         9.0298   -1.8288    2.8116 C.ar      1 <0>         0.1804
     17 N3          8.2045   -2.7248    2.2837 N.ar      1 <0>        -0.5455
     18 C14         6.9034   -2.6996    2.4999 C.ar      1 <0>         0.3384
     19 O2          6.1091   -3.6466    1.9402 O.3       1 <0>        -0.2996
     20 C15         6.7505   -4.6392    1.1368 C.3       1 <0>         0.0399
     21 C16        10.4998   -1.9749    2.5119 C.3       1 <0>        -0.0709
     22 C17        11.2399   -0.6717    2.8055 C.3       1 <0>        -0.1195
     23 C18        10.8759   -0.2159    4.2234 C.3       1 <0>        -0.1225
     24 C19         9.4162    0.2345    4.2240 C.3       1 <0>        -0.0712
     25 H1          1.0039    1.9031    0.0027 H         1 <0>         0.0557
     26 H2         -0.5459    1.8868   -0.8726 H         1 <0>         0.0573
     27 H3         -0.5289    1.8773    0.9072 H         1 <0>         0.0544
     28 H4         -1.0205   -0.3814    0.0098 H         1 <0>         0.0737
     29 H5          0.5123   -0.3556   -0.8948 H         1 <0>         0.0727
     30 H6          2.6892   -0.3413    0.3258 H         1 <0>         0.1275
     31 H7         -1.9096   -1.6476    1.9965 H         1 <0>         0.0809
     32 H8         -1.8070   -0.4982    3.3518 H         1 <0>         0.0706
     33 H9         -1.7636    0.0970    1.6749 H         1 <0>         0.0897
     34 H10         0.1616   -1.5377    4.2290 H         1 <0>         0.4147
     35 H11         4.6848   -0.9455    1.5507 H         1 <0>         0.4018
     36 H12         4.6390   -1.0079    4.3739 H         1 <0>         0.0742
     37 H13         4.5017   -2.6780    3.7737 H         1 <0>         0.0791
     38 H14         6.7602    0.0282    4.4764 H         1 <0>         0.1419
     39 H15         7.2628   -4.1572    0.3041 H         1 <0>         0.0583
     40 H16         7.4744   -5.1846    1.7422 H         1 <0>         0.0584
     41 H17         6.0034   -5.3329    0.7511 H         1 <0>         0.0959
     42 H18        10.9151   -2.7711    3.1297 H         1 <0>         0.0861
     43 H19        10.6284   -2.2323    1.4606 H         1 <0>         0.0854
     44 H20        12.3151   -0.8380    2.7388 H         1 <0>         0.0752
     45 H21        10.9387    0.0905    2.0869 H         1 <0>         0.0679
     46 H22        11.0049   -1.0444    4.9199 H         1 <0>         0.0673
     47 H23        11.5168    0.6152    4.5178 H         1 <0>         0.0723
     48 H24         9.3249    1.1588    3.6535 H         1 <0>         0.0766
     49 H25         9.0955    0.4131    5.2503 H         1 <0>         0.0759
@<TRIPOS>BOND
     1    1    2 1
     2    1   25 1
     3    1   26 1
     4    1   27 1
     5    2   28 1
     6    2   29 1
     7    2    3 1
     8    3    8 2
     9    3    4 1
    10    4   30 1
    11    4    5 2
    12    5    6 1
    13    5   11 1
    14    6   10 2
    15    6    7 am
    16    7   34 1
    17    7    8 1
    18    8    9 1
    19    9   31 1
    20    9   32 1
    21    9   33 1
    22   11   12 1
    23   11   35 1
    24   12   13 1
    25   12   36 1
    26   12   37 1
    27   13   18 ar
    28   13   14 ar
    29   14   15 ar
    30   14   38 1
    31   15   24 1
    32   15   16 ar
    33   16   17 ar
    34   16   21 1
    35   17   18 ar
    36   18   19 1
    37   19   20 1
    38   20   39 1
    39   20   40 1
    40   20   41 1
    41   21   22 1
    42   21   42 1
    43   21   43 1
    44   22   23 1
    45   22   44 1
    46   22   45 1
    47   23   24 1
    48   23   46 1
    49   23   47 1
    50   24   48 1
    51   24   49 1
@<TRIPOS>MOLECULE
CHEMBL88677
   34    35     0     0     0
SMALL
USER_CHARGES

@<TRIPOS>ATOM
      1 C1          0.1534    1.6428   -0.0339 C.ar      1 <0>        -0.0501
      2 C2          1.3759    2.2839   -0.1014 C.ar      1 <0>        -0.1579
      3 C3          2.5466    1.5443   -0.1092 C.ar      1 <0>         0.1379
      4 C4          2.4921    0.1625   -0.0488 C.ar      1 <0>        -0.1676
      5 C5          1.2672   -0.4784    0.0192 C.ar      1 <0>         0.1375
      6 C6          0.0978    0.2631    0.0264 C.ar      1 <0>        -0.1580
      7 F1          1.2125   -1.8270    0.0782 F         1 <0>        -0.1275
      8 C7          3.7655   -0.6435   -0.0577 C.3       1 <0>        -0.0920
      9 C8          4.2450   -0.8552    1.3797 C.3       1 <0>         0.1121
     10 N1          5.4828   -1.6388    1.3711 N.pl3     1 <0>        -0.6294
     11 C9          6.0916   -1.9498    2.5326 C.2       1 <0>         0.5307
     12 N2          7.2304   -2.6706    2.5247 N.pl3     1 <0>        -0.6419
     13 C10         7.9023   -2.9251    3.7189 C.ar      1 <0>         0.4084
     14 C11         9.2923   -2.8953    3.7469 C.ar      1 <0>        -0.1237
     15 C12         9.9471   -3.1493    4.9388 C.ar      1 <0>         0.0437
     16 C13         9.1856   -3.4256    6.0673 C.ar      1 <0>        -0.1307
     17 C14         7.8079   -3.4385    5.9667 C.ar      1 <0>         0.1815
     18 N3          7.2114   -3.1874    4.8168 N.ar      1 <0>        -0.4262
     19 Br1        10.0260   -3.7809    7.7236 Br        1 <0>         0.0604
     20 S1          5.4183   -1.4293    4.0181 S.2       1 <0>        -0.5567
     21 F2          3.7415    2.1712   -0.1761 F         1 <0>        -0.1271
     22 H1         -0.7590    2.2206   -0.0237 H         1 <0>         0.1510
     23 H2          1.4182    3.3620   -0.1485 H         1 <0>         0.1492
     24 H3         -0.8581   -0.2367    0.0794 H         1 <0>         0.1491
     25 H4          3.5800   -1.6106   -0.5250 H         1 <0>         0.0949
     26 H5          4.5302   -0.1085   -0.6207 H         1 <0>         0.0952
     27 H6          4.4304    0.1119    1.8471 H         1 <0>         0.1084
     28 H7          3.4803   -1.3902    1.9428 H         1 <0>         0.1085
     29 H8          9.8532   -2.6773    2.8501 H         1 <0>         0.1959
     30 H9         11.0257   -3.1334    4.9906 H         1 <0>         0.1926
     31 H10         7.2114   -3.6528    6.8411 H         1 <0>         0.2211
     32 H11         5.8643   -1.9337    0.5294 H         1 <0>         0.4150
     33 H12         6.2424   -3.1992    4.7743 H         1 <0>         0.4550
     34 H13         7.5823   -3.0123    1.6878 H         1 <0>         0.4409
@<TRIPOS>BOND
     1    1    6 ar
     2    1    2 ar
     3    1   22 1
     4    2    3 ar
     5    2   23 1
     6    3    4 ar
     7    3   21 1
     8    4    5 ar
     9    4    8 1
    10    5    6 ar
    11    5    7 1
    12    6   24 1
    13    8    9 1
    14    8   25 1
    15    8   26 1
    16    9   10 1
    17    9   27 1
    18    9   28 1
    19   10   11 1
    20   10   32 1
    21   11   12 1
    22   11   20 2
    23   12   13 1
    24   12   34 1
    25   13   18 ar
    26   13   14 ar
    27   14   15 ar
    28   14   29 1
    29   15   16 ar
    30   15   30 1
    31   16   17 ar
    32   16   19 1
    33   17   18 ar
    34   17   31 1
    35   18   33 1
@<TRIPOS>MOLECULE
CHEMBL88677__1
   32    33     0     0     0
SMALL
USER_CHARGES

@<TRIPOS>ATOM
      1 C1         -0.0167    1.3779    0.0096 C.ar      1 <0>        -0.0664
      2 C2          1.1701    2.0862    0.0021 C.ar      1 <0>        -0.1642
      3 C3          2.3794    1.4118   -0.0135 C.ar      1 <0>         0.1358
      4 C4          2.3994    0.0278   -0.0211 C.ar      1 <0>        -0.1440
      5 C5          1.2102   -0.6806   -0.0131 C.ar      1 <0>         0.1358
      6 C6          0.0021   -0.0041    0.0020 C.ar      1 <0>        -0.1643
      7 F1          1.2282   -2.0314   -0.0204 F         1 <0>        -0.1260
      8 C7          3.7149   -0.7073   -0.0385 C.3       1 <0>        -0.0938
      9 C8          4.1749   -0.9637    1.3980 C.3       1 <0>         0.1507
     10 N1          5.4537   -1.6783    1.3810 N.pl3     1 <0>        -0.7111
     11 C9          6.0646   -2.0192    2.5610 C.2       1 <0>         0.5581
     12 N2          7.2132   -2.6610    2.5457 N.2       1 <0>        -0.6418
     13 C10         7.8210   -3.0002    3.7197 C.ar      1 <0>         0.3626
     14 C11         9.0446   -3.6772    3.6978 C.ar      1 <0>        -0.1912
     15 C12         9.6468   -4.0128    4.8945 C.ar      1 <0>        -0.0478
     16 C13         9.0102   -3.6628    6.0804 C.ar      1 <0>        -0.2095
     17 C14         7.8024   -2.9943    6.0311 C.ar      1 <0>         0.1446
     18 N3          7.2485   -2.6797    4.8761 N.ar      1 <0>        -0.4146
     19 Br1         9.7913   -4.0989    7.7464 Br        1 <0>        -0.0958
     20 S1          5.3113   -1.5976    4.0970 S.3       1 <0>        -0.7952
     21 F2          3.5393    2.1044   -0.0217 F         1 <0>        -0.1260
     22 H1         -0.9594    1.9046    0.0259 H         1 <0>         0.1424
     23 H2          1.1543    3.1660    0.0080 H         1 <0>         0.1420
     24 H3         -0.9259   -0.5565    0.0082 H         1 <0>         0.1420
     25 H4          3.5926   -1.6587   -0.5562 H         1 <0>         0.0847
     26 H5          4.4609   -0.1049   -0.5569 H         1 <0>         0.0847
     27 H6          4.2972   -0.0123    1.9156 H         1 <0>         0.0690
     28 H7          3.4289   -1.5662    1.9163 H         1 <0>         0.0690
     29 H8          9.5116   -3.9342    2.7585 H         1 <0>         0.1229
     30 H9         10.5915   -4.5360    4.9090 H         1 <0>         0.1227
     31 H10         7.3066   -2.7221    6.9511 H         1 <0>         0.1378
     32 H11         5.8684   -1.9104    0.5354 H         1 <0>         0.3869
@<TRIPOS>BOND
     1    1    6 ar
     2    1    2 ar
     3    1   22 1
     4    2    3 ar
     5    2   23 1
     6    3    4 ar
     7    3   21 1
     8    4    5 ar
     9    4    8 1
    10    5    6 ar
    11    5    7 1
    12    6   24 1
    13    8    9 1
    14    8   25 1
    15    8   26 1
    16    9   10 1
    17    9   27 1
    18    9   28 1
    19   10   11 1
    20   10   32 1
    21   11   12 2
    22   11   20 1
    23   12   13 1
    24   13   18 ar
    25   13   14 ar
    26   14   15 ar
    27   14   29 1
    28   15   16 ar
    29   15   30 1
    30   16   17 ar
    31   16   19 1
    32   17   18 ar
    33   17   31 1
@<TRIPOS>MOLECULE
CHEMBL88677__2
   33    34     0     0     0
SMALL
USER_CHARGES

@<TRIPOS>ATOM
      1 C1          0.0564    1.5004    0.0004 C.ar      1 <0>        -0.0574
      2 C2          1.2519    2.1937    0.0117 C.ar      1 <0>        -0.1608
      3 C3          2.4528    1.5044   -0.0023 C.ar      1 <0>         0.1369
      4 C4          2.4556    0.1205   -0.0271 C.ar      1 <0>        -0.1572
      5 C5          1.2576   -0.5729   -0.0378 C.ar      1 <0>         0.1369
      6 C6          0.0579    0.1186   -0.0243 C.ar      1 <0>        -0.1608
      7 F1          1.2588   -1.9237   -0.0620 F         1 <0>        -0.1267
      8 C7          3.7618   -0.6309   -0.0428 C.3       1 <0>        -0.0921
      9 C8          4.2064   -0.9109    1.3941 C.3       1 <0>         0.1336
     10 N1          5.4763   -1.6413    1.3788 N.pl3     1 <0>        -0.6924
     11 C9          6.0705   -2.0031    2.5547 C.cat     1 <0>         0.4966
     12 N2          7.2573   -2.6856    2.5404 N.pl3     1 <0>        -0.6290
     13 C10         7.9292   -2.9401    3.7346 C.ar      1 <0>         0.3625
     14 C11         9.1903   -3.5252    3.7041 C.ar      1 <0>        -0.1957
     15 C12         9.8466   -3.7725    4.8965 C.ar      1 <0>        -0.0222
     16 C13         9.2161   -3.4245    6.0845 C.ar      1 <0>        -0.1719
     17 C14         7.9622   -2.8463    6.0401 C.ar      1 <0>         0.1578
     18 N3          7.3633   -2.6177    4.8868 N.ar      1 <0>        -0.4127
     19 Br1        10.0648   -3.7394    7.7447 Br        1 <0>        -0.0383
     20 S1          5.3536   -1.6150    4.0007 S.3       1 <0>        -0.4399
     21 F2          3.6213    2.1824    0.0077 F         1 <0>        -0.1267
     22 H1         -0.8797    2.0388    0.0155 H         1 <0>         0.1470
     23 H2          1.2496    3.2736    0.0310 H         1 <0>         0.1459
     24 H3         -0.8769   -0.4222   -0.0327 H         1 <0>         0.1459
     25 H4          3.6321   -1.5741   -0.5734 H         1 <0>         0.0896
     26 H5          4.5197   -0.0315   -0.5474 H         1 <0>         0.0896
     27 H6          4.3362    0.0323    1.9247 H         1 <0>         0.0898
     28 H7          3.4486   -1.5103    1.8986 H         1 <0>         0.0896
     29 H8          7.6304   -2.9921    1.6991 H         1 <0>         0.4091
     30 H9          9.6511   -3.7834    2.7621 H         1 <0>         0.1411
     31 H10        10.8267   -4.2261    4.9038 H         1 <0>         0.1481
     32 H11         7.4676   -2.5742    6.9608 H         1 <0>         0.1687
     33 H12         5.8952   -1.8681    0.5338 H         1 <0>         0.3950
@<TRIPOS>BOND
     1    1    6 ar
     2    1    2 ar
     3    1   22 1
     4    2    3 ar
     5    2   23 1
     6    3    4 ar
     7    3   21 1
     8    4    5 ar
     9    4    8 1
    10    5    6 ar
    11    5    7 1
    12    6   24 1
    13    8    9 1
    14    8   25 1
    15    8   26 1
    16    9   10 1
    17    9   27 1
    18    9   28 1
    19   10   11 2
    20   10   33 1
    21   11   12 1
    22   11   20 1
    23   12   13 1
    24   12   29 1
    25   13   18 ar
    26   13   14 ar
    27   14   15 ar
    28   14   30 1
    29   15   16 ar
    30   15   31 1
    31   16   17 ar
    32   16   19 1
    33   17   18 ar
    34   17   32 1
@<TRIPOS>MOLECULE
CHEMBL38679
   44    46     0     0     0
SMALL
USER_CHARGES

@<TRIPOS>ATOM
      1 C1         -0.0184    1.5028    0.0103 C.3       1 <0>        -0.0824
      2 C2          0.0021   -0.0041    0.0020 C.2       1 <0>         0.2838
      3 N1          0.0080   -0.7588   -1.0626 N.2       1 <0>        -0.4775
      4 C3          0.0278   -2.0475   -0.6911 C.2       1 <0>         0.1113
      5 C4          0.0345   -2.0930    0.6548 C.2       1 <0>        -0.0107
      6 N2          0.0232   -0.7970    1.0950 N.pl3     1 <0>        -0.4324
      7 C5          0.0296   -0.3529    2.4911 C.3       1 <0>         0.0912
      8 C6         -1.4104   -0.2188    2.9902 C.3       1 <0>         0.0552
      9 O1         -1.4042    0.2143    4.3519 O.3       1 <0>        -0.3614
     10 C7         -2.7069    0.3720    4.9177 C.3       1 <0>         0.1806
     11 C8         -3.1418   -0.9264    5.5470 C.ar      1 <0>        -0.1157
     12 C9         -2.2334   -1.6883    6.2578 C.ar      1 <0>        -0.0855
     13 C10        -2.6323   -2.8793    6.8351 C.ar      1 <0>        -0.1188
     14 C11        -3.9397   -3.3082    6.7020 C.ar      1 <0>        -0.1129
     15 C12        -4.8483   -2.5458    5.9920 C.ar      1 <0>        -0.1215
     16 C13        -4.4505   -1.3527    5.4183 C.ar      1 <0>        -0.1106
     17 C14        -2.6711    1.4521    5.9680 C.ar      1 <0>        -0.0845
     18 C15        -1.5453    1.6153    6.7535 C.ar      1 <0>        -0.0896
     19 C16        -1.5125    2.6061    7.7169 C.ar      1 <0>        -0.1214
     20 C17        -2.6051    3.4340    7.8945 C.ar      1 <0>        -0.1148
     21 C18        -3.7305    3.2714    7.1084 C.ar      1 <0>        -0.1194
     22 C19        -3.7618    2.2834    6.1421 C.ar      1 <0>        -0.1080
     23 N3          0.0554   -3.3107    1.4964 N.pl3     1 <0>         0.0715
     24 O2          0.0690   -4.4031    0.9788 O.2       1 <0>        -0.1313
     25 O3          0.0589   -3.2126    2.7014 O.3       1 <0>        -0.1627
     26 H1          1.0042    1.8801    0.0026 H         1 <0>         0.0993
     27 H2         -0.5455    1.8639   -0.8728 H         1 <0>         0.1077
     28 H3         -0.5286    1.8543    0.9071 H         1 <0>         0.0861
     29 H4          0.0365   -2.8993   -1.3550 H         1 <0>         0.2032
     30 H5          0.5594   -1.0836    3.1023 H         1 <0>         0.1232
     31 H6          0.5305    0.6125    2.5630 H         1 <0>         0.1164
     32 H7         -1.9402    0.5119    2.3790 H         1 <0>         0.0589
     33 H8         -1.9113   -1.1842    2.9182 H         1 <0>         0.0599
     34 H9         -3.4120    0.6502    4.1344 H         1 <0>         0.0777
     35 H10        -1.2120   -1.3532    6.3619 H         1 <0>         0.1256
     36 H11        -1.9225   -3.4749    7.3899 H         1 <0>         0.1247
     37 H12        -4.2512   -4.2390    7.1524 H         1 <0>         0.1232
     38 H13        -5.8696   -2.8810    5.8877 H         1 <0>         0.1231
     39 H14        -5.1612   -0.7552    4.8667 H         1 <0>         0.1189
     40 H15        -0.6917    0.9685    6.6147 H         1 <0>         0.1270
     41 H16        -0.6332    2.7331    8.3311 H         1 <0>         0.1240
     42 H17        -2.5797    4.2076    8.6477 H         1 <0>         0.1232
     43 H18        -4.5843    3.9180    7.2474 H         1 <0>         0.1245
     44 H19        -4.6396    2.1588    5.5253 H         1 <0>         0.1209
@<TRIPOS>BOND
     1    1    2 1
     2    1   26 1
     3    1   27 1
     4    1   28 1
     5    2    6 1
     6    2    3 2
     7    3    4 1
     8    4    5 2
     9    4   29 1
    10    5    6 1
    11    5   23 1
    12    6    7 1
    13    7    8 1
    14    7   30 1
    15    7   31 1
    16    8    9 1
    17    8   32 1
    18    8   33 1
    19    9   10 1
    20   10   11 1
    21   10   17 1
    22   10   34 1
    23   11   16 ar
    24   11   12 ar
    25   12   13 ar
    26   12   35 1
    27   13   14 ar
    28   13   36 1
    29   14   15 ar
    30   14   37 1
    31   15   16 ar
    32   15   38 1
    33   16   39 1
    34   17   22 ar
    35   17   18 ar
    36   18   19 ar
    37   18   40 1
    38   19   20 ar
    39   19   41 1
    40   20   21 ar
    41   20   42 1
    42   21   22 ar
    43   21   43 1
    44   22   44 1
    45   23   24 2
    46   23   25 1
@<TRIPOS>MOLECULE
CHEMBL43308
   37    41     0     0     0
SMALL
USER_CHARGES

@<TRIPOS>ATOM
      1 C1         -0.0184    1.5028    0.0103 C.3       1 <0>        -0.1254
      2 C2          0.0021   -0.0041    0.0020 C.ar      1 <0>        -0.0306
      3 C3         -0.0978   -0.7089   -1.1903 C.ar      1 <0>        -0.1631
      4 C4         -0.0738   -2.0881   -1.1607 C.ar      1 <0>         0.1271
      5 N1          0.0500   -2.7415   -0.0213 N.ar      1 <0>        -0.4749
      6 C5          0.1524   -2.1110    1.1414 C.ar      1 <0>         0.3899
      7 C6          0.1271   -0.7189    1.1859 C.ar      1 <0>         0.0587
      8 N2          0.1998   -0.0261    2.4033 N.pl3     1 <0>        -0.3899
      9 C7         -0.4733    1.1338    2.6993 C.2       1 <0>        -0.0549
     10 C8         -0.1284    1.4798    3.9552 C.2       1 <0>        -0.0118
     11 N3          0.7276    0.5654    4.4256 N.2       1 <0>        -0.4645
     12 C9          0.9349   -0.3535    3.5044 C.2       1 <0>         0.2602
     13 C10         1.8116   -1.5327    3.6572 C.ar      1 <0>        -0.0761
     14 C11         2.9943   -1.4383    4.3909 C.ar      1 <0>        -0.0203
     15 C12         3.7797   -2.5742    4.5174 C.ar      1 <0>        -0.1781
     16 C13         3.3686   -3.7506    3.9203 C.ar      1 <0>         0.1295
     17 N4          2.2476   -3.8130    3.2272 N.ar      1 <0>        -0.4878
     18 C14         1.4639   -2.7561    3.0696 C.ar      1 <0>         0.3935
     19 N5          0.3019   -2.8596    2.3056 N.pl3     1 <0>        -0.5561
     20 C15        -0.7686   -3.7683    2.7232 C.3       1 <0>         0.1017
     21 C16        -0.6484   -4.4137    4.1052 C.3       1 <0>        -0.1807
     22 C17        -0.4259   -5.2544    2.8463 C.3       1 <0>        -0.1801
     23 H1          0.8828    1.8757    0.4971 H         1 <0>         0.0805
     24 H2         -0.0566    1.8713   -1.0148 H         1 <0>         0.0823
     25 H3         -0.8961    1.8512    0.5547 H         1 <0>         0.0859
     26 H4         -0.1935   -0.1840   -2.1293 H         1 <0>         0.1515
     27 H5         -0.1572   -2.6414   -2.0845 H         1 <0>         0.1709
     28 H6         -1.1503    1.6676    2.0488 H         1 <0>         0.1876
     29 H7         -0.4826    2.3481    4.4910 H         1 <0>         0.1809
     30 H8          3.2905   -0.5056    4.8478 H         1 <0>         0.1499
     31 H9          4.7027   -2.5399    5.0770 H         1 <0>         0.1483
     32 H10         3.9774   -4.6368    4.0227 H         1 <0>         0.1663
     33 H11        -1.7680   -3.5096    2.3735 H         1 <0>         0.1244
     34 H12         0.2272   -4.1622    4.7037 H         1 <0>         0.0927
     35 H13        -1.5688   -4.5796    4.6650 H         1 <0>         0.1029
     36 H14        -1.2000   -5.9733    2.5779 H         1 <0>         0.0969
     37 H15         0.5960   -5.5559    2.6166 H         1 <0>         0.1127
@<TRIPOS>BOND
     1    1    2 1
     2    1   23 1
     3    1   24 1
     4    1   25 1
     5    2    7 ar
     6    2    3 ar
     7    3    4 ar
     8    3   26 1
     9    4    5 ar
    10    4   27 1
    11    5    6 ar
    12    6   19 1
    13    6    7 ar
    14    7    8 1
    15    8   12 1
    16    8    9 1
    17    9   10 2
    18    9   28 1
    19   10   11 1
    20   10   29 1
    21   11   12 2
    22   12   13 1
    23   13   18 ar
    24   13   14 ar
    25   14   15 ar
    26   14   30 1
    27   15   16 ar
    28   15   31 1
    29   16   17 ar
    30   16   32 1
    31   17   18 ar
    32   18   19 1
    33   19   20 1
    34   20   22 1
    35   20   21 1
    36   20   33 1
    37   21   22 1
    38   21   34 1
    39   21   35 1
    40   22   36 1
    41   22   37 1
@<TRIPOS>MOLECULE
CHEMBL48286
   44    47     0     0     0
SMALL
USER_CHARGES

@<TRIPOS>ATOM
      1 C1         -0.0167    1.3788    0.0096 C.ar      1 <0>        -0.1173
      2 C2          1.1668    2.0940    0.0022 C.ar      1 <0>        -0.1003
      3 C3          2.3808    1.4301   -0.0108 C.ar      1 <0>        -0.1288
      4 C4          2.4063    0.0470   -0.0174 C.ar      1 <0>         0.1567
      5 C5          1.2128   -0.6773   -0.0136 C.ar      1 <0>         0.1007
      6 C6          0.0021   -0.0041    0.0020 C.ar      1 <0>        -0.1126
      7 N1          1.2540   -2.0766   -0.0319 N.am      1 <0>        -0.6413
      8 C7          2.3989   -2.7340    0.2333 C.2       1 <0>         0.5189
      9 O1          2.4233   -3.9450    0.1697 O.2       1 <0>        -0.4822
     10 C8          3.6506   -1.9824    0.6079 C.3       1 <0>         0.2757
     11 N2          3.6199   -0.6548   -0.0242 N.pl3     1 <0>        -0.6191
     12 C9          4.8195   -0.0837   -0.6416 C.3       1 <0>         0.1333
     13 C10         5.5955    0.7227    0.4017 C.3       1 <0>        -0.1220
     14 C11         6.8482    1.3191   -0.2431 C.3       1 <0>        -0.1523
     15 C12         6.9472    2.8441   -0.3164 C.3       1 <0>        -0.1787
     16 C13         7.8238    2.0670    0.6678 C.3       1 <0>        -0.1776
     17 C14         4.8307   -2.7252    0.1364 C.1       1 <0>        -0.2165
     18 C15         5.7720   -3.3177   -0.2396 C.1       1 <0>        -0.0316
     19 C16         6.9521   -4.0605   -0.7110 C.3       1 <0>        -0.0683
     20 C17         7.8596   -4.6904    0.3475 C.3       1 <0>        -0.1565
     21 C18         8.3281   -3.4558   -0.4252 C.3       1 <0>        -0.1574
     22 C19         3.7170   -1.8239    2.1282 C.3       1 <0>         0.4483
     23 F1          3.7356   -3.0875    2.7284 F         1 <0>        -0.1652
     24 F2          4.8792   -1.1262    2.4741 F         1 <0>        -0.1618
     25 F3          2.5968   -1.1132    2.5723 F         1 <0>        -0.1665
     26 H1         -0.9608    1.9030    0.0260 H         1 <0>         0.1319
     27 H2          1.1436    3.1737    0.0061 H         1 <0>         0.1316
     28 H3          3.3046    1.9894   -0.0161 H         1 <0>         0.1350
     29 H4         -0.9251   -0.5579    0.0079 H         1 <0>         0.1340
     30 H5          0.4494   -2.5778   -0.2376 H         1 <0>         0.4219
     31 H6          5.4499   -0.8873   -1.0223 H         1 <0>         0.0845
     32 H7          4.5287    0.5704   -1.4637 H         1 <0>         0.0877
     33 H8          4.9650    1.5263    0.7823 H         1 <0>         0.0710
     34 H9          5.8862    0.0686    1.2237 H         1 <0>         0.0813
     35 H10         7.2694    0.7468   -1.0696 H         1 <0>         0.1051
     36 H11         7.4336    3.2754   -1.1913 H         1 <0>         0.0941
     37 H12         6.1199    3.4225    0.0948 H         1 <0>         0.0940
     38 H13         7.5731    2.1341    1.7265 H         1 <0>         0.0938
     39 H14         8.8868    1.9870    0.4404 H         1 <0>         0.0947
     40 H15         6.8243   -4.5992   -1.6500 H         1 <0>         0.1378
     41 H16         7.5828   -4.5548    1.3930 H         1 <0>         0.1015
     42 H17         8.3290   -5.6439    0.1051 H         1 <0>         0.1107
     43 H18         9.1057   -3.5969   -1.1758 H         1 <0>         0.1099
     44 H19         8.3595   -2.5079    0.1120 H         1 <0>         0.1016
@<TRIPOS>BOND
     1    1    6 ar
     2    1    2 ar
     3    1   26 1
     4    2    3 ar
     5    2   27 1
     6    3    4 ar
     7    3   28 1
     8    4   11 1
     9    4    5 ar
    10    5    6 ar
    11    5    7 1
    12    6   29 1
    13    7    8 am
    14    7   30 1
    15    8    9 2
    16    8   10 1
    17   10   11 1
    18   10   17 1
    19   10   22 1
    20   11   12 1
    21   12   13 1
    22   12   31 1
    23   12   32 1
    24   13   14 1
    25   13   33 1
    26   13   34 1
    27   14   16 1
    28   14   15 1
    29   14   35 1
    30   15   16 1
    31   15   36 1
    32   15   37 1
    33   16   38 1
    34   16   39 1
    35   17   18 3
    36   18   19 1
    37   19   21 1
    38   19   20 1
    39   19   40 1
    40   20   21 1
    41   20   41 1
    42   20   42 1
    43   21   43 1
    44   21   44 1
    45   22   23 1
    46   22   24 1
    47   22   25 1
@<TRIPOS>MOLECULE
CHEMBL48286__1
   44    47     0     0     0
SMALL
USER_CHARGES

@<TRIPOS>ATOM
      1 C1          0.2432    1.8884    0.6169 C.ar      1 <0>        -0.1172
      2 C2          1.5040    2.4532    0.5576 C.ar      1 <0>        -0.1003
      3 C3          2.6151    1.6546    0.3517 C.ar      1 <0>        -0.1286
      4 C4          2.4600    0.2876    0.2063 C.ar      1 <0>         0.1567
      5 C5          1.1885   -0.2854    0.2695 C.ar      1 <0>         0.1010
      6 C6          0.0816    0.5224    0.4733 C.ar      1 <0>        -0.1127
      7 N1          1.0481   -1.6716    0.1321 N.am      1 <0>        -0.6412
      8 C7          2.0625   -2.4218   -0.3384 C.2       1 <0>         0.5190
      9 O1          1.9349   -3.6260   -0.4089 O.2       1 <0>        -0.4824
     10 C8          3.3545   -1.7826   -0.7790 C.3       1 <0>         0.2758
     11 N2          3.5651   -0.5474   -0.0096 N.pl3     1 <0>        -0.6188
     12 C9          4.8884   -0.2004    0.5147 C.3       1 <0>         0.1338
     13 C10         5.6499    0.6222   -0.5266 C.3       1 <0>        -0.1200
     14 C11         6.9729    1.1039    0.0721 C.3       1 <0>        -0.1529
     15 C12         7.1717    2.6134    0.2235 C.3       1 <0>        -0.1785
     16 C13         7.9392    1.8450   -0.8541 C.3       1 <0>        -0.1772
     17 C14         4.4710   -2.7105   -0.5359 C.1       1 <0>        -0.2163
     18 C15         5.3615   -3.4506   -0.3420 C.1       1 <0>        -0.0317
     19 C16         6.4780   -4.3786   -0.0989 C.3       1 <0>        -0.0678
     20 C17         7.4838   -4.0034    0.9913 C.3       1 <0>        -0.1572
     21 C18         7.8828   -3.9095   -0.4827 C.3       1 <0>        -0.1565
     22 C19         3.2785   -1.4500   -2.2705 C.3       1 <0>         0.4482
     23 F1          2.2197   -0.5640   -2.4973 F         1 <0>        -0.1669
     24 F2          4.4783   -0.8568   -2.6778 F         1 <0>        -0.1621
     25 F3          3.0678   -2.6249   -3.0002 F         1 <0>        -0.1651
     26 H1         -0.6197    2.5170    0.7807 H         1 <0>         0.1319
     27 H2          1.6218    3.5207    0.6719 H         1 <0>         0.1317
     28 H3          3.5993    2.0967    0.3043 H         1 <0>         0.1350
     29 H4         -0.9053    0.0863    0.5204 H         1 <0>         0.1340
     30 H5          0.2115   -2.0960    0.3787 H         1 <0>         0.4219
     31 H6          4.7755    0.3841    1.4278 H         1 <0>         0.0882
     32 H7          5.4432   -1.1128    0.7335 H         1 <0>         0.0825
     33 H8          5.8508    0.0042   -1.4017 H         1 <0>         0.0792
     34 H9          5.0490    1.4830   -0.8199 H         1 <0>         0.0720
     35 H10         7.4044    0.4598    0.8382 H         1 <0>         0.1046
     36 H11         6.3599    3.2632   -0.1034 H         1 <0>         0.0941
     37 H12         7.7340    2.9626    1.0895 H         1 <0>         0.0942
     38 H13         9.0064    1.6887   -0.6971 H         1 <0>         0.0948
     39 H14         7.6324    1.9893   -1.8901 H         1 <0>         0.0940
     40 H15         6.2474   -5.4359   -0.2290 H         1 <0>         0.1387
     41 H16         7.3187   -3.0694    1.5285 H         1 <0>         0.0995
     42 H17         7.9150   -4.8140    1.5788 H         1 <0>         0.1103
     43 H18         8.5765   -4.6583   -0.8650 H         1 <0>         0.1104
     44 H19         7.9803   -2.9137   -0.9153 H         1 <0>         0.1019
@<TRIPOS>BOND
     1    1    6 ar
     2    1    2 ar
     3    1   26 1
     4    2    3 ar
     5    2   27 1
     6    3    4 ar
     7    3   28 1
     8    4   11 1
     9    4    5 ar
    10    5    6 ar
    11    5    7 1
    12    6   29 1
    13    7    8 am
    14    7   30 1
    15    8    9 2
    16    8   10 1
    17   10   11 1
    18   10   17 1
    19   10   22 1
    20   11   12 1
    21   12   13 1
    22   12   31 1
    23   12   32 1
    24   13   14 1
    25   13   33 1
    26   13   34 1
    27   14   16 1
    28   14   15 1
    29   14   35 1
    30   15   16 1
    31   15   36 1
    32   15   37 1
    33   16   38 1
    34   16   39 1
    35   17   18 3
    36   18   19 1
    37   19   21 1
    38   19   20 1
    39   19   40 1
    40   20   21 1
    41   20   41 1
    42   20   42 1
    43   21   43 1
    44   21   44 1
    45   22   23 1
    46   22   24 1
    47   22   25 1
@<TRIPOS>MOLECULE
CHEMBL145193
   40    43     0     0     0
SMALL
USER_CHARGES

@<TRIPOS>ATOM
      1 C1         -0.0187    1.5258    0.0104 C.3       1 <0>        -0.1712
      2 C2          0.0021   -0.0041    0.0020 C.3       1 <0>         0.1374
      3 N1         -1.3723   -0.5112    0.0124 N.pl3     1 <0>        -0.5781
      4 C3         -2.0200   -0.7546    1.2117 C.ar      1 <0>         0.4161
      5 C4         -3.2163   -0.0808    1.5074 C.ar      1 <0>        -0.2017
      6 C5         -3.8972   -0.4035    2.6865 C.ar      1 <0>        -0.0008
      7 C6         -3.3374   -1.3440    3.5340 C.ar      1 <0>        -0.1914
      8 C7         -2.1321   -1.9318    3.1963 C.ar      1 <0>         0.1509
      9 N2         -1.5174   -1.6299    2.0692 N.ar      1 <0>        -0.4996
     10 C8         -3.7305    0.9723    0.6276 C.2       1 <0>         0.5770
     11 O1         -4.2308    1.9439    1.1603 O.2       1 <0>        -0.5235
     12 N3         -3.6983    0.9598   -0.6968 N.am      1 <0>        -0.5377
     13 C9         -3.2056   -0.0594   -1.5097 C.ar      1 <0>         0.0926
     14 C10        -2.0454   -0.7488   -1.1851 C.ar      1 <0>         0.3717
     15 N4         -1.5631   -1.6639   -2.0142 N.ar      1 <0>        -0.4642
     16 C11        -2.1811   -1.9784   -3.1481 C.ar      1 <0>         0.2261
     17 C12        -3.3717   -1.3482   -3.5061 C.ar      1 <0>        -0.1417
     18 C13        -3.8880   -0.3830   -2.6802 C.ar      1 <0>        -0.0739
     19 C14        -1.6007   -3.0047   -4.0371 C.2       1 <0>        -0.1271
     20 C15        -0.4564   -3.7405   -3.8746 C.2       1 <0>        -0.1067
     21 C16        -0.1109   -4.6506   -4.8486 C.2       1 <0>        -0.1627
     22 C17        -0.9113   -4.7911   -5.9369 C.2       1 <0>        -0.1602
     23 S1         -2.2115   -3.6153   -5.5997 S.3       1 <0>         0.0741
     24 C18        -4.2370    2.1399   -1.3776 C.3       1 <0>         0.0578
     25 H1          1.0039    1.9031    0.0027 H         1 <0>         0.0727
     26 H2         -0.5459    1.8868   -0.8726 H         1 <0>         0.0542
     27 H3         -0.5289    1.8773    0.9072 H         1 <0>         0.0544
     28 H4          0.5123   -0.3556   -0.8948 H         1 <0>         0.0835
     29 H5          0.5293   -0.3651    0.8851 H         1 <0>         0.0845
     30 H6         -4.8369    0.0702    2.9297 H         1 <0>         0.1484
     31 H7         -3.8377   -1.6163    4.4516 H         1 <0>         0.1492
     32 H8         -1.6862   -2.6508    3.8675 H         1 <0>         0.1682
     33 H9         -3.8808   -1.6184   -4.4195 H         1 <0>         0.1473
     34 H10        -4.8069    0.1220   -2.9388 H         1 <0>         0.1519
     35 H11         0.1628   -3.6091   -2.9996 H         1 <0>         0.1426
     36 H12         0.7854   -5.2447   -4.7486 H         1 <0>         0.1396
     37 H13        -0.7936   -5.4483   -6.7858 H         1 <0>         0.1912
     38 H14        -4.5879    2.8582   -0.6366 H         1 <0>         0.1069
     39 H15        -3.4560    2.5969   -1.9852 H         1 <0>         0.0707
     40 H16        -5.0678    1.8425   -2.0174 H         1 <0>         0.0715
@<TRIPOS>BOND
     1    1    2 1
     2    1   25 1
     3    1   26 1
     4    1   27 1
     5    2    3 1
     6    2   28 1
     7    2   29 1
     8    3   14 1
     9    3    4 1
    10    4    9 ar
    11    4    5 ar
    12    5    6 ar
    13    5   10 1
    14    6    7 ar
    15    6   30 1
    16    7    8 ar
    17    7   31 1
    18    8    9 ar
    19    8   32 1
    20   10   11 2
    21   10   12 am
    22   12   13 1
    23   12   24 1
    24   13   18 ar
    25   13   14 ar
    26   14   15 ar
    27   15   16 ar
    28   16   17 ar
    29   16   19 1
    30   17   18 ar
    31   17   33 1
    32   18   34 1
    33   19   23 1
    34   19   20 2
    35   20   21 1
    36   20   35 1
    37   21   22 2
    38   21   36 1
    39   22   23 1
    40   22   37 1
    41   24   38 1
    42   24   39 1
    43   24   40 1
@<TRIPOS>MOLECULE
CHEMBL299334
   34    36     0     0     0
SMALL
USER_CHARGES

@<TRIPOS>ATOM
      1 C1         -0.0225    1.8097    0.0120 C.3       1 <0>        -0.1190
      2 S1          0.0021   -0.0041    0.0020 S.3       1 <0>        -0.2436
      3 C2         -1.7518   -0.4668    0.0163 C.3       1 <0>        -0.1065
      4 C3         -1.8771   -1.9917    0.0093 C.3       1 <0>         0.1147
      5 N1         -3.2935   -2.3654    0.0208 N.am      1 <0>        -0.5373
      6 C4         -3.8936   -2.5277    1.2679 C.ar      1 <0>         0.0866
      7 C5         -3.1771   -3.1467    2.2891 C.ar      1 <0>        -0.0664
      8 C6         -3.7725   -3.2773    3.5342 C.ar      1 <0>        -0.1297
      9 C7         -5.0513   -2.7888    3.7241 C.ar      1 <0>         0.1894
     10 N2         -5.7106   -2.2163    2.7350 N.ar      1 <0>        -0.4611
     11 C8         -5.1859   -2.0845    1.5242 C.ar      1 <0>         0.3093
     12 O1         -5.9494   -1.5531    0.5387 O.3       1 <0>        -0.2475
     13 C9         -6.2857   -2.3385   -0.5094 C.ar      1 <0>         0.1252
     14 C10        -7.6217   -2.6260   -0.7526 C.ar      1 <0>        -0.1212
     15 C11        -7.9739   -3.4507   -1.8025 C.ar      1 <0>        -0.0718
     16 C12        -6.9983   -3.9980   -2.6192 C.ar      1 <0>        -0.1235
     17 C13        -5.6683   -3.7131   -2.3989 C.ar      1 <0>        -0.0427
     18 C14        -5.2989   -2.8683   -1.3475 C.ar      1 <0>        -0.1638
     19 C15        -3.8860   -2.5124   -1.1569 C.2       1 <0>         0.5689
     20 O2         -3.2086   -2.3449   -2.1525 O.2       1 <0>        -0.5039
     21 Cl1        -5.8000   -2.9308    5.2839 Cl        1 <0>        -0.0077
     22 H1          1.0001    2.1870    0.0043 H         1 <0>         0.1070
     23 H2         -0.5497    2.1708   -0.8711 H         1 <0>         0.0789
     24 H3         -0.5327    2.1613    0.9088 H         1 <0>         0.0780
     25 H4         -2.2257   -0.0675    0.9130 H         1 <0>         0.0832
     26 H5         -2.2427   -0.0579   -0.8669 H         1 <0>         0.0893
     27 H6         -1.4032   -2.3910   -0.8874 H         1 <0>         0.1144
     28 H7         -1.3862   -2.4006    0.8924 H         1 <0>         0.0987
     29 H8         -2.1780   -3.5178    2.1145 H         1 <0>         0.1639
     30 H9         -3.2438   -3.7552    4.3457 H         1 <0>         0.1645
     31 H10        -8.3875   -2.2039   -0.1188 H         1 <0>         0.1457
     32 H11        -9.0150   -3.6702   -1.9875 H         1 <0>         0.1429
     33 H12        -7.2812   -4.6510   -3.4316 H         1 <0>         0.1417
     34 H13        -4.9110   -4.1424   -3.0381 H         1 <0>         0.1431
@<TRIPOS>BOND
     1    1    2 1
     2    1   22 1
     3    1   23 1
     4    1   24 1
     5    2    3 1
     6    3    4 1
     7    3   25 1
     8    3   26 1
     9    4    5 1
    10    4   27 1
    11    4   28 1
    12    5   19 am
    13    5    6 1
    14    6   11 ar
    15    6    7 ar
    16    7    8 ar
    17    7   29 1
    18    8    9 ar
    19    8   30 1
    20    9   10 ar
    21    9   21 1
    22   10   11 ar
    23   11   12 1
    24   12   13 1
    25   13   18 ar
    26   13   14 ar
    27   14   15 ar
    28   14   31 1
    29   15   16 ar
    30   15   32 1
    31   16   17 ar
    32   16   33 1
    33   17   18 ar
    34   17   34 1
    35   18   19 1
    36   19   20 2
@<TRIPOS>MOLECULE
CHEMBL145273
   48    51     0     0     0
SMALL
USER_CHARGES

@<TRIPOS>ATOM
      1 C1         -0.0187    1.5258    0.0104 C.3       1 <0>        -0.1727
      2 C2          0.0021   -0.0041    0.0020 C.3       1 <0>         0.1264
      3 N1          0.7106   -0.4894    1.1889 N.pl3     1 <0>        -0.5896
      4 C3          2.0801   -0.6982    1.1488 C.ar      1 <0>         0.4028
      5 C4          2.9184    0.0061    2.0271 C.ar      1 <0>        -0.1901
      6 C5          4.2878   -0.2784    2.0269 C.ar      1 <0>        -0.0016
      7 C6          4.7649   -1.2157    1.1260 C.ar      1 <0>        -0.1830
      8 C7          3.8832   -1.8363    0.2604 C.ar      1 <0>         0.1494
      9 N2          2.5920   -1.5690    0.2925 N.ar      1 <0>        -0.4988
     10 C8          2.3837    1.0532    2.9039 C.2       1 <0>         0.5762
     11 O1          3.0664    2.0462    3.0656 O.2       1 <0>        -0.5264
     12 N3          1.2192    1.0084    3.5342 N.am      1 <0>        -0.6355
     13 C9          0.2952   -0.0435    3.5126 C.2       1 <0>         0.0327
     14 C10         0.0209   -0.7373    2.3589 C.2       1 <0>         0.4000
     15 N4         -0.9447   -1.7037    2.3585 N.am      1 <0>        -0.6059
     16 C11        -1.5892   -2.0420    3.4886 C.2       1 <0>         0.5235
     17 C12        -1.3010   -1.3842    4.6880 C.2       1 <0>        -0.1936
     18 C13        -0.3653   -0.3894    4.6987 C.2       1 <0>         0.0031
     19 C14        -0.0536    0.3374    5.9815 C.3       1 <0>         0.0963
     20 O2         -0.8533   -0.1973    7.0383 O.3       1 <0>        -0.3721
     21 C15        -0.6338    0.4257    8.3055 C.3       1 <0>         0.1044
     22 C16        -1.5241   -0.2130    9.3401 C.ar      1 <0>        -0.0958
     23 C17        -2.7918    0.2896    9.5663 C.ar      1 <0>        -0.0968
     24 C18        -3.6085   -0.2962   10.5154 C.ar      1 <0>        -0.1231
     25 C19        -3.1576   -1.3850   11.2379 C.ar      1 <0>        -0.1110
     26 C20        -1.8902   -1.8882   11.0111 C.ar      1 <0>        -0.1232
     27 C21        -1.0752   -1.3050   10.0591 C.ar      1 <0>        -0.0971
     28 O3         -2.4306   -2.9277    3.4674 O.2       1 <0>        -0.5371
     29 H1          1.0039    1.9031    0.0027 H         1 <0>         0.0586
     30 H2         -0.5459    1.8868   -0.8726 H         1 <0>         0.0759
     31 H3         -0.5289    1.8773    0.9072 H         1 <0>         0.0603
     32 H4         -1.0205   -0.3814    0.0098 H         1 <0>         0.0802
     33 H5          0.5123   -0.3556   -0.8948 H         1 <0>         0.0928
     34 H6          4.9567    0.2209    2.7122 H         1 <0>         0.1514
     35 H7          5.8167   -1.4596    1.0996 H         1 <0>         0.1514
     36 H8          4.2587   -2.5528   -0.4552 H         1 <0>         0.1702
     37 H9          0.9823    1.7843    4.0658 H         1 <0>         0.4125
     38 H10        -1.8118   -1.6627    5.5979 H         1 <0>         0.1714
     39 H11         1.0014    0.2101    6.2241 H         1 <0>         0.0773
     40 H12        -0.2732    1.3982    5.8608 H         1 <0>         0.0755
     41 H13         0.4092    0.3002    8.5963 H         1 <0>         0.0624
     42 H14        -0.8655    1.4883    8.2329 H         1 <0>         0.0630
     43 H15        -3.1441    1.1403    9.0018 H         1 <0>         0.1233
     44 H16        -4.5987    0.0969   10.6925 H         1 <0>         0.1245
     45 H17        -3.7954   -1.8423   11.9799 H         1 <0>         0.1236
     46 H18        -1.5378   -2.7387   11.5759 H         1 <0>         0.1244
     47 H19        -0.0864   -1.7005    9.8792 H         1 <0>         0.1229
     48 H20        -1.1693   -2.1530    1.5287 H         1 <0>         0.4172
@<TRIPOS>BOND
     1    1    2 1
     2    1   29 1
     3    1   30 1
     4    1   31 1
     5    2   32 1
     6    2   33 1
     7    2    3 1
     8    3   14 1
     9    3    4 1
    10    4    9 ar
    11    4    5 ar
    12    5    6 ar
    13    5   10 1
    14    6    7 ar
    15    6   34 1
    16    7    8 ar
    17    7   35 1
    18    8    9 ar
    19    8   36 1
    20   10   11 2
    21   10   12 am
    22   12   37 1
    23   12   13 1
    24   13   14 2
    25   13   18 1
    26   14   15 1
    27   15   16 am
    28   15   48 1
    29   16   28 2
    30   16   17 1
    31   17   18 2
    32   17   38 1
    33   18   19 1
    34   19   20 1
    35   19   39 1
    36   19   40 1
    37   20   21 1
    38   21   22 1
    39   21   41 1
    40   21   42 1
    41   22   27 ar
    42   22   23 ar
    43   23   24 ar
    44   23   43 1
    45   24   25 ar
    46   24   44 1
    47   25   26 ar
    48   25   45 1
    49   26   27 ar
    50   26   46 1
    51   27   47 1
@<TRIPOS>MOLECULE
CHEMBL142659
   44    47     0     0     0
SMALL
USER_CHARGES

@<TRIPOS>ATOM
      1 C1         -0.0187    1.5258    0.0104 C.3       1 <0>        -0.1712
      2 C2          0.0021   -0.0041    0.0020 C.3       1 <0>         0.1381
      3 N1          0.7106   -0.4894    1.1889 N.pl3     1 <0>        -0.5790
      4 C3          2.0788   -0.6986    1.1511 C.ar      1 <0>         0.4168
      5 C4          2.9156   -0.0002    2.0369 C.ar      1 <0>        -0.2011
      6 C5          4.2849   -0.2885    2.0382 C.ar      1 <0>        -0.0013
      7 C6          4.7627   -1.2208    1.1332 C.ar      1 <0>        -0.1922
      8 C7          3.8827   -1.8342    0.2605 C.ar      1 <0>         0.1502
      9 N2          2.5920   -1.5646    0.2905 N.ar      1 <0>        -0.5002
     10 C8          2.3844    1.0431    2.9181 C.2       1 <0>         0.5763
     11 O1          3.0711    2.0331    3.0810 O.2       1 <0>        -0.5261
     12 N3          1.2222    1.0036    3.5528 N.am      1 <0>        -0.5368
     13 C9          0.2977   -0.0387    3.5356 C.ar      1 <0>         0.0827
     14 C10         0.0162   -0.7404    2.3713 C.ar      1 <0>         0.3711
     15 N4         -0.9195   -1.6795    2.3720 N.ar      1 <0>        -0.4758
     16 C11        -1.5835   -2.0066    3.4738 C.ar      1 <0>         0.2044
     17 C12        -1.3161   -1.3665    4.6800 C.ar      1 <0>        -0.1531
     18 C13        -0.3670   -0.3753    4.7119 C.ar      1 <0>        -0.0734
     19 C14        -2.6208   -3.0642    3.4186 C.ar      1 <0>        -0.1693
     20 C15        -2.8277   -3.7949    2.2421 C.ar      1 <0>         0.0110
     21 C16        -3.8045   -4.7701    2.2382 C.ar      1 <0>        -0.2436
     22 C17        -4.5465   -4.9939    3.3952 C.ar      1 <0>         0.4153
     23 N5         -4.3255   -4.2848    4.4919 N.ar      1 <0>        -0.5453
     24 C18        -3.3988   -3.3488    4.5376 C.ar      1 <0>         0.1792
     25 N6         -5.5314   -5.9731    3.3991 N.pl3     1 <0>        -0.8462
     26 C19         0.8725    2.1780    4.3557 C.3       1 <0>         0.0586
     27 H1          1.0039    1.9031    0.0027 H         1 <0>         0.0540
     28 H2         -0.5459    1.8868   -0.8726 H         1 <0>         0.0720
     29 H3         -0.5289    1.8773    0.9072 H         1 <0>         0.0542
     30 H4         -1.0205   -0.3814    0.0098 H         1 <0>         0.0832
     31 H5          0.5123   -0.3556   -0.8948 H         1 <0>         0.0835
     32 H6          4.9531    0.2047    2.7286 H         1 <0>         0.1478
     33 H7          5.8140   -1.4668    1.1087 H         1 <0>         0.1486
     34 H8          4.2591   -2.5467   -0.4585 H         1 <0>         0.1676
     35 H9         -1.8464   -1.6475    5.5779 H         1 <0>         0.1487
     36 H10        -0.1447    0.1377    5.6359 H         1 <0>         0.1483
     37 H11        -2.2375   -3.5998    1.3589 H         1 <0>         0.1445
     38 H12        -3.9914   -5.3526    1.3481 H         1 <0>         0.1349
     39 H13        -3.2440   -2.7941    5.4513 H         1 <0>         0.1607
     40 H14        -5.6987   -6.4958    2.5993 H         1 <0>         0.4104
     41 H15        -6.0519   -6.1342    4.2016 H         1 <0>         0.4061
     42 H16         1.6713    2.9164    4.2865 H         1 <0>         0.1057
     43 H17        -0.0556    2.6105    3.9819 H         1 <0>         0.0699
     44 H18         0.7416    1.8809    5.3962 H         1 <0>         0.0709
@<TRIPOS>BOND
     1    1    2 1
     2    1   27 1
     3    1   28 1
     4    1   29 1
     5    2    3 1
     6    2   30 1
     7    2   31 1
     8    3   14 1
     9    3    4 1
    10    4    9 ar
    11    4    5 ar
    12    5    6 ar
    13    5   10 1
    14    6    7 ar
    15    6   32 1
    16    7    8 ar
    17    7   33 1
    18    8    9 ar
    19    8   34 1
    20   10   11 2
    21   10   12 am
    22   12   13 1
    23   12   26 1
    24   13   18 ar
    25   13   14 ar
    26   14   15 ar
    27   15   16 ar
    28   16   17 ar
    29   16   19 1
    30   17   18 ar
    31   17   35 1
    32   18   36 1
    33   19   24 ar
    34   19   20 ar
    35   20   21 ar
    36   20   37 1
    37   21   22 ar
    38   21   38 1
    39   22   23 ar
    40   22   25 1
    41   23   24 ar
    42   24   39 1
    43   25   40 1
    44   25   41 1
    45   26   42 1
    46   26   43 1
    47   26   44 1
@<TRIPOS>MOLECULE
CHEMBL336635
   61    64     0     0     0
SMALL
USER_CHARGES

@<TRIPOS>ATOM
      1 C1          1.3061   -1.7781   -0.6908 C.3       1 <0>        -0.1559
      2 C2         -0.1441   -2.0286   -1.1093 C.3       1 <0>        -0.0921
      3 C3         -1.0238   -0.9411   -0.5485 C.ar      1 <0>        -0.0757
      4 C4         -1.5843   -1.0717    0.7095 C.ar      1 <0>         0.0045
      5 C5         -2.3883   -0.0452    1.1865 C.ar      1 <0>        -0.1252
      6 C6         -2.6035    1.0674    0.3978 C.ar      1 <0>         0.1282
      7 N1         -2.0562    1.1648   -0.7988 N.ar      1 <0>        -0.4574
      8 C7         -1.2785    0.2102   -1.2863 C.ar      1 <0>         0.4094
      9 N2         -0.7171    0.3571   -2.5495 N.pl3     1 <0>        -0.6675
     10 C8          0.6437    0.8813   -2.6898 C.3       1 <0>         0.0938
     11 C9         -1.4862   -0.0122   -3.7404 C.3       1 <0>         0.1625
     12 C10        -1.7925    1.2439   -4.5593 C.3       1 <0>        -0.1479
     13 C11        -2.6262    0.8586   -5.7854 C.3       1 <0>         0.1161
     14 N3         -1.9149   -0.1891   -6.5306 N.am      1 <0>        -0.6217
     15 C12        -1.4932   -1.4017   -5.8162 C.3       1 <0>         0.0816
     16 C13        -0.6722   -0.9910   -4.5897 C.3       1 <0>        -0.1423
     17 C14        -1.6547   -0.0407   -7.8446 C.2       1 <0>         0.5968
     18 O1         -1.9012    1.0141   -8.3982 O.2       1 <0>        -0.5217
     19 C15        -1.0728   -1.1539   -8.6092 C.2       1 <0>        -0.0195
     20 C16        -0.4065   -1.0368   -9.7876 C.2       1 <0>        -0.1003
     21 C17        -0.0096   -2.3350  -10.1901 C.ar      1 <0>        -0.0694
     22 C18         0.6931   -2.8237  -11.2996 C.ar      1 <0>        -0.1594
     23 C19         0.9307   -4.1784  -11.4149 C.ar      1 <0>         0.2603
     24 C20         0.4748   -5.0594  -10.4335 C.ar      1 <0>        -0.1772
     25 C21        -0.2165   -4.5921   -9.3399 C.ar      1 <0>        -0.1019
     26 C22        -0.4668   -3.2294   -9.2034 C.ar      1 <0>         0.0360
     27 N4         -1.1113   -2.4845   -8.2409 N.pl3     1 <0>        -0.5943
     28 H1         -1.5256   -2.8365   -7.4376 H         1 <0>         0.4057
     29 N5          1.6316   -4.6708  -12.5216 N.2       1 <0>        -1.0972
     30 S1          1.9188   -6.2955  -12.6638 S.o2      1 <0>         2.5233
     31 O2          2.7563   -6.6136  -11.5608 O.2       1 <0>        -1.0346
     32 O3          0.6305   -6.8820  -12.7880 O.2       1 <0>        -1.0332
     33 C23         2.8381   -6.4722  -14.2177 C.3       1 <0>        -0.6352
     34 H2          1.9370   -2.5837   -1.0665 H         1 <0>         0.0790
     35 H3          1.6448   -0.8283   -1.1047 H         1 <0>         0.0620
     36 H4          1.3696   -1.7438    0.3968 H         1 <0>         0.0608
     37 H5         -0.2137   -2.0274   -2.1971 H         1 <0>         0.0981
     38 H6         -0.4713   -2.9948   -0.7253 H         1 <0>         0.0973
     39 H7         -1.4009   -1.9525    1.3070 H         1 <0>         0.1761
     40 H8         -2.8411   -0.1165    2.1644 H         1 <0>         0.1858
     41 H9         -3.2283    1.8682    0.7649 H         1 <0>         0.2069
     42 H10         1.3523    0.0532   -2.7042 H         1 <0>         0.0690
     43 H11         0.7225    1.4432   -3.6204 H         1 <0>         0.0865
     44 H12         0.8688    1.5375   -1.8490 H         1 <0>         0.0650
     45 H13        -2.4206   -0.4845   -3.4372 H         1 <0>         0.0869
     46 H14        -2.3521    1.9504   -3.9463 H         1 <0>         0.0712
     47 H15        -0.8588    1.7032   -4.8839 H         1 <0>         0.0825
     48 H16        -3.5973    0.4827   -5.4635 H         1 <0>         0.0680
     49 H17        -2.7631    1.7318   -6.4232 H         1 <0>         0.1042
     50 H18        -2.3720   -1.9619   -5.4968 H         1 <0>         0.0728
     51 H19        -0.8826   -2.0198   -6.4743 H         1 <0>         0.1174
     52 H20         0.2509   -0.5107   -4.9141 H         1 <0>         0.0846
     53 H21        -0.4345   -1.8752   -3.9984 H         1 <0>         0.0863
     54 H22        -0.2141   -0.1180  -10.3216 H         1 <0>         0.1439
     55 H23         1.0467   -2.1440  -12.0608 H         1 <0>         0.1167
     56 H24         0.6662   -6.1176  -10.5336 H         1 <0>         0.1113
     57 H25        -0.5651   -5.2828   -8.5864 H         1 <0>         0.1048
     58 H26         3.7654   -5.9025  -14.1580 H         1 <0>         0.1156
     59 H27         3.0681   -7.5242  -14.3862 H         1 <0>         0.1014
     60 H28         2.2330   -6.0959  -15.0426 H         1 <0>         0.1159
     61 H29        -2.2238    1.9572   -1.3326 H         1 <0>         0.4415
@<TRIPOS>BOND
     1    1    2 1
     2    1   34 1
     3    1   35 1
     4    1   36 1
     5    2    3 1
     6    2   37 1
     7    2   38 1
     8    3    8 ar
     9    3    4 ar
    10    4    5 ar
    11    4   39 1
    12    5    6 ar
    13    5   40 1
    14    6    7 ar
    15    6   41 1
    16    7    8 ar
    17    7   61 1
    18    8    9 1
    19    9   10 1
    20    9   11 1
    21   10   42 1
    22   10   43 1
    23   10   44 1
    24   11   16 1
    25   11   12 1
    26   11   45 1
    27   12   13 1
    28   12   46 1
    29   12   47 1
    30   13   14 1
    31   13   48 1
    32   13   49 1
    33   14   15 1
    34   14   17 am
    35   15   16 1
    36   15   50 1
    37   15   51 1
    38   16   52 1
    39   16   53 1
    40   17   18 2
    41   17   19 1
    42   19   27 1
    43   19   20 2
    44   20   21 1
    45   20   54 1
    46   21   26 ar
    47   21   22 ar
    48   22   23 ar
    49   22   55 1
    50   23   24 ar
    51   23   29 1
    52   24   25 ar
    53   24   56 1
    54   25   26 ar
    55   25   57 1
    56   26   27 1
    57   27   28 1
    58   29   30 1
    59   30   31 2
    60   30   32 2
    61   30   33 1
    62   33   58 1
    63   33   59 1
    64   33   60 1
@<TRIPOS>MOLECULE
CHEMBL79339
   46    50     0     0     0
SMALL
USER_CHARGES

@<TRIPOS>ATOM
      1 C1         -0.0187    1.5258    0.0104 C.3       1 <0>        -0.1711
      2 C2          0.0021   -0.0041    0.0020 C.3       1 <0>         0.1379
      3 N1          0.7106   -0.4894    1.1889 N.pl3     1 <0>        -0.5786
      4 C3          2.0788   -0.6987    1.1510 C.ar      1 <0>         0.4170
      5 C4          2.9157   -0.0004    2.0368 C.ar      1 <0>        -0.2010
      6 C5          4.2850   -0.2889    2.0382 C.ar      1 <0>        -0.0015
      7 C6          4.7626   -1.2210    1.1329 C.ar      1 <0>        -0.1923
      8 C7          3.8826   -1.8342    0.2601 C.ar      1 <0>         0.1504
      9 N2          2.5920   -1.5645    0.2902 N.ar      1 <0>        -0.4998
     10 C8          2.3845    1.0428    2.9182 C.2       1 <0>         0.5763
     11 O1          3.0713    2.0327    3.0814 O.2       1 <0>        -0.5267
     12 N3          1.2222    1.0032    3.5528 N.am      1 <0>        -0.5368
     13 C9          0.2974   -0.0401    3.5359 C.ar      1 <0>         0.0797
     14 C10         0.0161   -0.7404    2.3714 C.ar      1 <0>         0.3720
     15 N4         -0.9202   -1.6797    2.3716 N.ar      1 <0>        -0.4725
     16 C11        -1.5846   -2.0068    3.4738 C.ar      1 <0>         0.2287
     17 C12        -1.3162   -1.3663    4.6808 C.ar      1 <0>        -0.1548
     18 C13        -0.3667   -0.3770    4.7129 C.ar      1 <0>        -0.0726
     19 C14        -2.6212   -3.0626    3.4187 C.2       1 <0>        -0.1329
     20 C15        -3.3855   -3.5034    4.4488 C.2       1 <0>         0.1030
     21 N5         -4.2275   -4.4849    4.0112 N.pl3     1 <0>        -0.5718
     22 H1         -4.8699   -4.9525    4.5675 H         1 <0>         0.4251
     23 C16        -4.0355   -4.7158    2.6690 C.ar      1 <0>         0.2801
     24 C17        -3.0286   -3.8347    2.2347 C.ar      1 <0>        -0.1222
     25 C18        -2.6323   -3.8483    0.8980 C.ar      1 <0>        -0.0129
     26 C19        -3.2578   -4.7378    0.0431 C.ar      1 <0>        -0.2009
     27 C20        -4.2451   -5.5753    0.5373 C.ar      1 <0>         0.1397
     28 N6         -4.5977   -5.5513    1.8052 N.ar      1 <0>        -0.5000
     29 C21         0.8725    2.1775    4.3559 C.3       1 <0>         0.0590
     30 H2          1.0039    1.9031    0.0027 H         1 <0>         0.0539
     31 H3         -0.5459    1.8868   -0.8726 H         1 <0>         0.0719
     32 H4         -0.5289    1.8773    0.9072 H         1 <0>         0.0542
     33 H5         -1.0205   -0.3814    0.0098 H         1 <0>         0.0830
     34 H6          0.5123   -0.3556   -0.8948 H         1 <0>         0.0837
     35 H7          4.9532    0.2042    2.7286 H         1 <0>         0.1475
     36 H8          5.8139   -1.4671    1.1084 H         1 <0>         0.1483
     37 H9          4.2590   -2.5463   -0.4593 H         1 <0>         0.1675
     38 H10        -1.8461   -1.6471    5.5790 H         1 <0>         0.1455
     39 H11        -0.1440    0.1364    5.6366 H         1 <0>         0.1474
     40 H12        -3.3353   -3.1340    5.4624 H         1 <0>         0.1862
     41 H13        -1.8599   -3.1836    0.5405 H         1 <0>         0.1443
     42 H14        -2.9796   -4.7789   -0.9997 H         1 <0>         0.1388
     43 H15        -4.7319   -6.2689   -0.1323 H         1 <0>         0.1621
     44 H16         1.6713    2.9159    4.2869 H         1 <0>         0.1055
     45 H17        -0.0555    2.6101    3.9821 H         1 <0>         0.0695
     46 H18         0.7414    1.8801    5.3964 H         1 <0>         0.0702
@<TRIPOS>BOND
     1    1    2 1
     2    1   30 1
     3    1   31 1
     4    1   32 1
     5    2    3 1
     6    2   33 1
     7    2   34 1
     8    3   14 1
     9    3    4 1
    10    4    9 ar
    11    4    5 ar
    12    5    6 ar
    13    5   10 1
    14    6    7 ar
    15    6   35 1
    16    7    8 ar
    17    7   36 1
    18    8    9 ar
    19    8   37 1
    20   10   11 2
    21   10   12 am
    22   12   13 1
    23   12   29 1
    24   13   18 ar
    25   13   14 ar
    26   14   15 ar
    27   15   16 ar
    28   16   17 ar
    29   16   19 1
    30   17   18 ar
    31   17   38 1
    32   18   39 1
    33   19   24 1
    34   19   20 2
    35   20   21 1
    36   20   40 1
    37   21   22 1
    38   21   23 1
    39   23   28 ar
    40   23   24 ar
    41   24   25 ar
    42   25   26 ar
    43   25   41 1
    44   26   27 ar
    45   26   42 1
    46   27   28 ar
    47   27   43 1
    48   29   44 1
    49   29   45 1
    50   29   46 1
@<TRIPOS>MOLECULE
CHEMBL99235
   39    41     0     0     0
SMALL
USER_CHARGES

@<TRIPOS>ATOM
      1 C1         -0.0187    1.5258    0.0104 C.3       1 <0>        -0.1513
      2 C2          0.0021   -0.0041    0.0020 C.3       1 <0>        -0.0698
      3 C3         -1.4117   -0.5257    0.0127 C.2       1 <0>        -0.1945
      4 C4         -2.0970   -0.6703    1.2272 C.2       1 <0>         0.0051
      5 C5         -3.3763   -1.1434    1.2188 C.2       1 <0>        -0.2183
      6 C6         -3.9789   -1.4753   -0.0066 C.2       1 <0>         0.5213
      7 N1         -3.2945   -1.3252   -1.1566 N.am      1 <0>        -0.6036
      8 C7         -2.0229   -0.8497   -1.1506 C.2       1 <0>         0.1644
      9 C8         -1.2820   -0.6862   -2.4527 C.3       1 <0>        -0.1327
     10 O1         -5.1230   -1.9001   -0.0285 O.2       1 <0>        -0.5461
     11 C9         -4.1353   -1.3089    2.5101 C.3       1 <0>        -0.0504
     12 C10        -4.9878   -0.0640    2.7638 C.3       1 <0>        -0.0269
     13 C11        -5.7469   -0.2295    4.0551 C.2       1 <0>         0.2714
     14 N2         -5.3144    0.1393    5.2231 N.2       1 <0>        -0.4654
     15 C12        -6.2578   -0.1634    6.1557 C.ar      1 <0>         0.0439
     16 C13        -6.3355    0.0004    7.5410 C.ar      1 <0>         0.0188
     17 C14        -7.4589   -0.4227    8.2172 C.ar      1 <0>        -0.0979
     18 C15        -8.5119   -1.0100    7.5313 C.ar      1 <0>        -0.0744
     19 C16        -8.4485   -1.1785    6.1630 C.ar      1 <0>        -0.0078
     20 C17        -7.3248   -0.7572    5.4658 C.ar      1 <0>         0.0248
     21 O2         -6.9692   -0.7740    4.1623 O.3       1 <0>        -0.1938
     22 Cl1        -9.7720   -1.9159    5.3154 Cl        1 <0>        -0.0390
     23 Cl2        -5.0215    0.7335    8.4069 Cl        1 <0>        -0.0337
     24 H1          1.0039    1.9031    0.0027 H         1 <0>         0.0598
     25 H2         -0.5459    1.8868   -0.8726 H         1 <0>         0.0543
     26 H3         -0.5289    1.8773    0.9072 H         1 <0>         0.0573
     27 H4          0.5123   -0.3556   -0.8948 H         1 <0>         0.0749
     28 H5          0.5293   -0.3651    0.8851 H         1 <0>         0.0759
     29 H6         -1.6171   -0.4103    2.1592 H         1 <0>         0.1383
     30 H7         -0.7486   -1.6078   -2.6854 H         1 <0>         0.0916
     31 H8         -1.9923   -0.4663   -3.2498 H         1 <0>         0.0784
     32 H9         -0.5693    0.1338   -2.3648 H         1 <0>         0.0974
     33 H10        -3.7160   -1.5564   -1.9991 H         1 <0>         0.4151
     34 H11        -4.7815   -2.1841    2.4421 H         1 <0>         0.0864
     35 H12        -3.4309   -1.4404    3.3314 H         1 <0>         0.0852
     36 H13        -4.3416    0.8112    2.8318 H         1 <0>         0.1146
     37 H14        -5.6923    0.0675    1.9425 H         1 <0>         0.1046
     38 H15        -7.5200   -0.2966    9.2881 H         1 <0>         0.1595
     39 H16        -9.3873   -1.3381    8.0719 H         1 <0>         0.1624
@<TRIPOS>BOND
     1    1    2 1
     2    1   24 1
     3    1   25 1
     4    1   26 1
     5    2   27 1
     6    2   28 1
     7    2    3 1
     8    3    8 2
     9    3    4 1
    10    4   29 1
    11    4    5 2
    12    5    6 1
    13    5   11 1
    14    6   10 2
    15    6    7 am
    16    7   33 1
    17    7    8 1
    18    8    9 1
    19    9   30 1
    20    9   31 1
    21    9   32 1
    22   11   12 1
    23   11   34 1
    24   11   35 1
    25   12   13 1
    26   12   36 1
    27   12   37 1
    28   13   21 1
    29   13   14 2
    30   14   15 1
    31   15   20 ar
    32   15   16 ar
    33   16   17 ar
    34   16   23 1
    35   17   18 ar
    36   17   38 1
    37   18   19 ar
    38   18   39 1
    39   19   20 ar
    40   19   22 1
    41   20   21 1
@<TRIPOS>MOLECULE
CHEMBL100951
   51    55     0     0     0
SMALL
USER_CHARGES

@<TRIPOS>ATOM
      1 C1         -0.0187    1.5258    0.0104 C.3       1 <0>        -0.1712
      2 C2          0.0021   -0.0041    0.0020 C.3       1 <0>         0.1355
      3 N1          0.6878   -0.4765   -1.2033 N.pl3     1 <0>        -0.5775
      4 C3         -0.0294   -0.7093   -2.3768 C.ar      1 <0>         0.3808
      5 C4          0.2592    0.0020   -3.5389 C.ar      1 <0>         0.0978
      6 C5         -0.4390   -0.3005   -4.7037 C.ar      1 <0>        -0.0729
      7 C6         -1.4212   -1.2794   -4.6556 C.ar      1 <0>        -0.1353
      8 C7         -1.6761   -1.9213   -3.4595 C.ar      1 <0>         0.1839
      9 N2         -0.9871   -1.6263   -2.3726 N.ar      1 <0>        -0.4681
     10 Cl1        -2.9188   -3.1312   -3.3841 Cl        1 <0>        -0.0164
     11 N3          1.1873    1.0408   -3.5541 N.am      1 <0>        -0.5373
     12 C8          2.3528    1.0748   -2.9252 C.2       1 <0>         0.5771
     13 O1          3.0365    2.0688   -3.0757 O.2       1 <0>        -0.5171
     14 C9          2.8892    0.0171   -2.0630 C.ar      1 <0>        -0.2009
     15 C10         2.0554   -0.6913   -1.1915 C.ar      1 <0>         0.4228
     16 N4          2.5741   -1.5848   -0.3616 N.ar      1 <0>        -0.4965
     17 C11         3.8622   -1.8676   -0.3601 C.ar      1 <0>         0.1801
     18 C12         4.7345   -1.2399   -1.2304 C.ar      1 <0>        -0.1641
     19 C13         4.2542   -0.2882   -2.0933 C.ar      1 <0>         0.0234
     20 C14         6.1974   -1.6016   -1.2327 C.3       1 <0>         0.1084
     21 O2          6.4231   -2.6677   -2.1571 O.3       1 <0>        -0.3049
     22 C15         7.6995   -3.1168   -2.2813 C.ar      1 <0>         0.1802
     23 C16         8.7117   -2.5520   -1.5294 C.ar      1 <0>        -0.2455
     24 C17        10.0156   -3.0094   -1.6542 C.ar      1 <0>        -0.0560
     25 C18        10.3228   -4.0302   -2.5267 C.ar      1 <0>        -0.1689
     26 C19         9.3204   -4.6151   -3.2949 C.ar      1 <0>         0.1320
     27 C20         7.9969   -4.1590   -3.1677 C.ar      1 <0>        -0.1367
     28 C21         7.1976   -4.9698   -4.0895 C.2       1 <0>        -0.1819
     29 C22         8.0384   -5.8290   -4.6862 C.2       1 <0>         0.0388
     30 N5          9.3135   -5.6260   -4.2298 N.pl3     1 <0>        -0.5948
     31 H1         10.0938   -6.1267   -4.5149 H         1 <0>         0.4181
     32 C23         0.8376    2.2201   -4.3500 C.3       1 <0>         0.0640
     33 H2          1.0039    1.9031    0.0027 H         1 <0>         0.0551
     34 H3         -0.5459    1.8868   -0.8726 H         1 <0>         0.0545
     35 H4         -0.5289    1.8773    0.9072 H         1 <0>         0.0743
     36 H5          0.5293   -0.3651    0.8851 H         1 <0>         0.0865
     37 H6         -1.0205   -0.3814    0.0098 H         1 <0>         0.0857
     38 H7         -0.2206    0.2159   -5.6268 H         1 <0>         0.1598
     39 H8         -1.9797   -1.5367   -5.5434 H         1 <0>         0.1591
     40 H9          4.2426   -2.6030    0.3332 H         1 <0>         0.1706
     41 H10         4.9193    0.2181   -2.7772 H         1 <0>         0.1507
     42 H11         6.7859   -0.7333   -1.5288 H         1 <0>         0.0795
     43 H12         6.4950   -1.9185   -0.2331 H         1 <0>         0.0818
     44 H13         8.4869   -1.7503   -0.8414 H         1 <0>         0.1292
     45 H14        10.7984   -2.5600   -1.0611 H         1 <0>         0.1291
     46 H15        11.3420   -4.3765   -2.6150 H         1 <0>         0.1215
     47 H16         6.1335   -4.8914   -4.2567 H         1 <0>         0.1466
     48 H17         7.7533   -6.5648   -5.4236 H         1 <0>         0.1719
     49 H18         0.2956    2.9313   -3.7267 H         1 <0>         0.0699
     50 H19         1.7476    2.6870   -4.7267 H         1 <0>         0.0959
     51 H20         0.2095    1.9193   -5.1885 H         1 <0>         0.0814
@<TRIPOS>BOND
     1    1    2 1
     2    1   33 1
     3    1   34 1
     4    1   35 1
     5    2    3 1
     6    2   36 1
     7    2   37 1
     8    3   15 1
     9    3    4 1
    10    4    9 ar
    11    4    5 ar
    12    5    6 ar
    13    5   11 1
    14    6    7 ar
    15    6   38 1
    16    7    8 ar
    17    7   39 1
    18    8    9 ar
    19    8   10 1
    20   11   12 am
    21   11   32 1
    22   12   13 2
    23   12   14 1
    24   14   19 ar
    25   14   15 ar
    26   15   16 ar
    27   16   17 ar
    28   17   18 ar
    29   17   40 1
    30   18   19 ar
    31   18   20 1
    32   19   41 1
    33   20   21 1
    34   20   42 1
    35   20   43 1
    36   21   22 1
    37   22   27 ar
    38   22   23 ar
    39   23   24 ar
    40   23   44 1
    41   24   25 ar
    42   24   45 1
    43   25   26 ar
    44   25   46 1
    45   26   30 1
    46   26   27 ar
    47   27   28 1
    48   28   29 2
    49   28   47 1
    50   29   30 1
    51   29   48 1
    52   30   31 1
    53   32   49 1
    54   32   50 1
    55   32   51 1
@<TRIPOS>MOLECULE
CHEMBL144035
   44    47     0     0     0
SMALL
USER_CHARGES

@<TRIPOS>ATOM
      1 C1         -0.0187    1.5258    0.0104 C.3       1 <0>        -0.1712
      2 C2          0.0021   -0.0041    0.0020 C.3       1 <0>         0.1377
      3 N1          0.7106   -0.4894    1.1889 N.pl3     1 <0>        -0.5787
      4 C3          2.0788   -0.6987    1.1511 C.ar      1 <0>         0.4164
      5 C4          2.9156   -0.0007    2.0372 C.ar      1 <0>        -0.2019
      6 C5          4.2849   -0.2891    2.0385 C.ar      1 <0>        -0.0010
      7 C6          4.7626   -1.2210    1.1331 C.ar      1 <0>        -0.1917
      8 C7          3.8827   -1.8340    0.2601 C.ar      1 <0>         0.1509
      9 N2          2.5920   -1.5643    0.2902 N.ar      1 <0>        -0.4998
     10 C8          2.3844    1.0422    2.9189 C.2       1 <0>         0.5767
     11 O1          3.0714    2.0319    3.0826 O.2       1 <0>        -0.5245
     12 N3          1.2223    1.0023    3.5539 N.am      1 <0>        -0.5377
     13 C9          0.2983   -0.0402    3.5370 C.ar      1 <0>         0.0898
     14 C10         0.0162   -0.7404    2.3713 C.ar      1 <0>         0.3689
     15 N4         -0.9198   -1.6791    2.3718 N.ar      1 <0>        -0.4694
     16 C11        -1.5838   -2.0062    3.4737 C.ar      1 <0>         0.1852
     17 C12        -1.3158   -1.3668    4.6801 C.ar      1 <0>        -0.1462
     18 C13        -0.3653   -0.3777    4.7136 C.ar      1 <0>        -0.0769
     19 C14        -2.6219   -3.0631    3.4182 C.ar      1 <0>        -0.0626
     20 C15        -3.3286   -3.4093    4.5693 C.ar      1 <0>        -0.0804
     21 C16        -4.2938   -4.3924    4.5144 C.ar      1 <0>        -0.1486
     22 C17        -4.5624   -5.0374    3.3144 C.ar      1 <0>         0.1205
     23 C18        -3.8601   -4.6952    2.1665 C.ar      1 <0>        -0.1503
     24 C19        -2.8977   -3.7089    2.2136 C.ar      1 <0>        -0.0588
     25 O2         -5.5140   -6.0057    3.2635 O.3       1 <0>        -0.4992
     26 C20         0.8729    2.1762    4.3576 C.3       1 <0>         0.0583
     27 H1          1.0039    1.9031    0.0027 H         1 <0>         0.0542
     28 H2         -0.5459    1.8868   -0.8726 H         1 <0>         0.0724
     29 H3         -0.5289    1.8773    0.9072 H         1 <0>         0.0540
     30 H4         -1.0205   -0.3814    0.0098 H         1 <0>         0.0833
     31 H5          0.5123   -0.3556   -0.8948 H         1 <0>         0.0842
     32 H6          4.9530    0.2032    2.7296 H         1 <0>         0.1481
     33 H7          5.8139   -1.4670    1.1086 H         1 <0>         0.1490
     34 H8          4.2590   -2.5462   -0.4592 H         1 <0>         0.1681
     35 H9         -1.8458   -1.6482    5.5780 H         1 <0>         0.1495
     36 H10        -0.1424    0.1350    5.6377 H         1 <0>         0.1492
     37 H11        -3.1198   -2.9083    5.5030 H         1 <0>         0.1331
     38 H12        -4.8412   -4.6614    5.4057 H         1 <0>         0.1344
     39 H13        -4.0711   -5.1989    1.2348 H         1 <0>         0.1333
     40 H14        -2.3552   -3.4399    1.3194 H         1 <0>         0.1397
     41 H15        -6.3996   -5.6763    3.0577 H         1 <0>         0.3942
     42 H16         1.6716    2.9147    4.2886 H         1 <0>         0.1064
     43 H17        -0.0553    2.6090    3.9843 H         1 <0>         0.0701
     44 H18         0.7422    1.8785    5.3980 H         1 <0>         0.0710
@<TRIPOS>BOND
     1    1    2 1
     2    1   27 1
     3    1   28 1
     4    1   29 1
     5    2    3 1
     6    2   30 1
     7    2   31 1
     8    3   14 1
     9    3    4 1
    10    4    9 ar
    11    4    5 ar
    12    5    6 ar
    13    5   10 1
    14    6    7 ar
    15    6   32 1
    16    7    8 ar
    17    7   33 1
    18    8    9 ar
    19    8   34 1
    20   10   11 2
    21   10   12 am
    22   12   13 1
    23   12   26 1
    24   13   18 ar
    25   13   14 ar
    26   14   15 ar
    27   15   16 ar
    28   16   17 ar
    29   16   19 1
    30   17   18 ar
    31   17   35 1
    32   18   36 1
    33   19   24 ar
    34   19   20 ar
    35   20   21 ar
    36   20   37 1
    37   21   22 ar
    38   21   38 1
    39   22   23 ar
    40   22   25 1
    41   23   24 ar
    42   23   39 1
    43   24   40 1
    44   25   41 1
    45   26   42 1
    46   26   43 1
    47   26   44 1
@<TRIPOS>MOLECULE
CHEMBL336441
   42    45     0     0     0
SMALL
USER_CHARGES

@<TRIPOS>ATOM
      1 C1         -0.3926    1.5061    0.3001 C.3       1 <0>        -0.1548
      2 C2         -0.3592   -0.0235    0.2978 C.3       1 <0>        -0.0973
      3 C3          0.7421   -0.5109    1.2415 C.3       1 <0>         0.1326
      4 C4          0.4114   -0.0836    2.6248 C.2       1 <0>         0.4196
      5 O1         -0.7511    0.0801    2.9360 O.2       1 <0>        -0.4337
      6 C5          1.4254    0.1360    3.5871 C.2       1 <0>        -0.0940
      7 C6          1.1667    0.6313    4.8613 C.2       1 <0>        -0.0751
      8 C7          2.3966    0.7928    5.4960 C.2       1 <0>        -0.2059
      9 C8          3.3629    0.3945    4.6368 C.2       1 <0>         0.0647
     10 N1          2.7802   -0.0594    3.4862 N.pl3     1 <0>        -0.3624
     11 C9          3.5202   -0.6695    2.4669 C.ar      1 <0>         0.3003
     12 C10         3.1250   -0.6162    1.1248 C.ar      1 <0>         0.0747
     13 C11         3.9164   -1.2179    0.1582 C.ar      1 <0>        -0.0671
     14 C12         5.0742   -1.8702    0.5568 C.ar      1 <0>        -0.1530
     15 C13         5.3990   -1.8989    1.8989 C.ar      1 <0>         0.1211
     16 N2          4.6334   -1.3128    2.7957 N.ar      1 <0>        -0.4795
     17 O2          1.9770   -0.0068    0.7962 O.3       1 <0>        -0.2986
     18 C14         0.7874   -2.0166    1.1980 C.ar      1 <0>        -0.1258
     19 C15         0.2983   -2.7539    2.2603 C.ar      1 <0>        -0.1094
     20 C16         0.3399   -4.1349    2.2204 C.ar      1 <0>        -0.1092
     21 C17         0.8701   -4.7789    1.1178 C.ar      1 <0>        -0.1070
     22 C18         1.3582   -4.0418    0.0554 C.ar      1 <0>        -0.0824
     23 C19         1.3127   -2.6605    0.0935 C.ar      1 <0>        -0.0952
     24 C20         1.9365   -4.7438   -1.1462 C.3       1 <0>        -0.1151
     25 H1          0.5703    1.8911   -0.0357 H         1 <0>         0.0630
     26 H2         -1.1772    1.8534   -0.3723 H         1 <0>         0.0651
     27 H3         -0.5948    1.8637    1.3097 H         1 <0>         0.0577
     28 H4         -1.3221   -0.4085    0.6336 H         1 <0>         0.0962
     29 H5         -0.1570   -0.3810   -0.7118 H         1 <0>         0.0819
     30 H6          0.1953    0.8498    5.2796 H         1 <0>         0.1597
     31 H7          2.5512    1.1696    6.4962 H         1 <0>         0.1563
     32 H8          4.4250    0.4298    4.8289 H         1 <0>         0.1781
     33 H9          3.6368   -1.1799   -0.8843 H         1 <0>         0.1529
     34 H10         5.7119   -2.3487   -0.1717 H         1 <0>         0.1528
     35 H11         6.2952   -2.4102    2.2178 H         1 <0>         0.1725
     36 H12        -0.1159   -2.2509    3.1216 H         1 <0>         0.1225
     37 H13        -0.0415   -4.7108    3.0505 H         1 <0>         0.1283
     38 H14         0.9032   -5.8579    1.0869 H         1 <0>         0.1274
     39 H15         1.6906   -2.0846   -0.7383 H         1 <0>         0.1271
     40 H16         1.1465   -4.9290   -1.8740 H         1 <0>         0.0742
     41 H17         2.7064   -4.1176   -1.5971 H         1 <0>         0.0673
     42 H18         2.3750   -5.6924   -0.8366 H         1 <0>         0.0693
@<TRIPOS>BOND
     1    1    2 1
     2    1   25 1
     3    1   26 1
     4    1   27 1
     5    2    3 1
     6    2   28 1
     7    2   29 1
     8    3   17 1
     9    3    4 1
    10    3   18 1
    11    4    5 2
    12    4    6 1
    13    6   10 1
    14    6    7 2
    15    7    8 1
    16    7   30 1
    17    8    9 2
    18    8   31 1
    19    9   10 1
    20    9   32 1
    21   10   11 1
    22   11   16 ar
    23   11   12 ar
    24   12   13 ar
    25   12   17 1
    26   13   14 ar
    27   13   33 1
    28   14   15 ar
    29   14   34 1
    30   15   16 ar
    31   15   35 1
    32   18   23 ar
    33   18   19 ar
    34   19   20 ar
    35   19   36 1
    36   20   21 ar
    37   20   37 1
    38   21   22 ar
    39   21   38 1
    40   22   23 ar
    41   22   24 1
    42   23   39 1
    43   24   40 1
    44   24   41 1
    45   24   42 1
@<TRIPOS>MOLECULE
CHEMBL336441__1
   42    45     0     0     0
SMALL
USER_CHARGES

@<TRIPOS>ATOM
      1 C1         -1.3079   -0.7810   -0.1436 C.3       1 <0>        -0.1553
      2 C2          0.0021   -0.0041    0.0020 C.3       1 <0>        -0.1491
      3 C3          0.6951   -0.4121    1.3036 C.3       1 <0>         0.1333
      4 C4          2.0284    0.2393    1.3610 C.2       1 <0>         0.4122
      5 O1          2.9948   -0.3405    0.9085 O.2       1 <0>        -0.4253
      6 C5          2.1937    1.5231    1.9328 C.2       1 <0>        -0.0936
      7 C6          3.4372    2.1257    2.0961 C.2       1 <0>        -0.0729
      8 C7          3.2240    3.3331    2.7580 C.2       1 <0>        -0.2055
      9 C8          1.8943    3.4595    2.9735 C.2       1 <0>         0.0648
     10 N1          1.2477    2.3860    2.4269 N.pl3     1 <0>        -0.3655
     11 C9         -0.1485    2.3086    2.3672 C.ar      1 <0>         0.2963
     12 C10        -0.8280    1.0844    2.3732 C.ar      1 <0>         0.0734
     13 C11        -2.2141    1.0757    2.3396 C.ar      1 <0>        -0.0685
     14 C12        -2.8867    2.2879    2.2860 C.ar      1 <0>        -0.1528
     15 C13        -2.1557    3.4595    2.2674 C.ar      1 <0>         0.1215
     16 N2         -0.8398    3.4399    2.3076 N.ar      1 <0>        -0.4797
     17 O2         -0.1302   -0.0602    2.3865 O.3       1 <0>        -0.2990
     18 C14         0.8863   -1.9069    1.3038 C.ar      1 <0>        -0.0681
     19 C15         1.0619   -2.5815    0.1099 C.ar      1 <0>        -0.0958
     20 C16         1.2372   -3.9524    0.1101 C.ar      1 <0>        -0.1160
     21 C17         1.2375   -4.6492    1.3043 C.ar      1 <0>        -0.1099
     22 C18         1.0628   -3.9747    2.4979 C.ar      1 <0>        -0.0871
     23 C19         0.8917   -2.6027    2.4980 C.ar      1 <0>        -0.0901
     24 C20         1.0626   -4.7342    3.7995 C.3       1 <0>        -0.1155
     25 H1         -1.9108   -0.6483    0.7547 H         1 <0>         0.0629
     26 H2         -1.8572   -0.4084   -1.0081 H         1 <0>         0.0649
     27 H3         -1.0889   -1.8399   -0.2811 H         1 <0>         0.0717
     28 H4          0.6536   -0.2289   -0.8424 H         1 <0>         0.0910
     29 H5         -0.2099    1.0649    0.0229 H         1 <0>         0.0696
     30 H6          4.3888    1.7314    1.7712 H         1 <0>         0.1598
     31 H7          3.9853    4.0421    3.0482 H         1 <0>         0.1567
     32 H8          1.4194    4.2778    3.4944 H         1 <0>         0.1787
     33 H9         -2.7594    0.1436    2.3545 H         1 <0>         0.1561
     34 H10        -3.9660    2.3149    2.2595 H         1 <0>         0.1543
     35 H11        -2.6718    4.4071    2.2191 H         1 <0>         0.1741
     36 H12         1.0617   -2.0372   -0.8229 H         1 <0>         0.1242
     37 H13         1.3737   -4.4795   -0.8226 H         1 <0>         0.1272
     38 H14         1.3738   -5.7205    1.3044 H         1 <0>         0.1246
     39 H15         0.7590   -2.0752    3.4310 H         1 <0>         0.1257
     40 H16         2.0792   -4.7879    4.1890 H         1 <0>         0.0717
     41 H17         0.4244   -4.2215    4.5192 H         1 <0>         0.0668
     42 H18         0.6840   -5.7425    3.6318 H         1 <0>         0.0679
@<TRIPOS>BOND
     1    1    2 1
     2    1   25 1
     3    1   26 1
     4    1   27 1
     5    2    3 1
     6    2   28 1
     7    2   29 1
     8    3   17 1
     9    3    4 1
    10    3   18 1
    11    4    5 2
    12    4    6 1
    13    6   10 1
    14    6    7 2
    15    7    8 1
    16    7   30 1
    17    8    9 2
    18    8   31 1
    19    9   10 1
    20    9   32 1
    21   10   11 1
    22   11   16 ar
    23   11   12 ar
    24   12   13 ar
    25   12   17 1
    26   13   14 ar
    27   13   33 1
    28   14   15 ar
    29   14   34 1
    30   15   16 ar
    31   15   35 1
    32   18   23 ar
    33   18   19 ar
    34   19   20 ar
    35   19   36 1
    36   20   21 ar
    37   20   37 1
    38   21   22 ar
    39   21   38 1
    40   22   23 ar
    41   22   24 1
    42   23   39 1
    43   24   40 1
    44   24   41 1
    45   24   42 1
@<TRIPOS>MOLECULE
CHEMBL441072
   46    49     0     0     0
SMALL
USER_CHARGES

@<TRIPOS>ATOM
      1 C1         -0.0187    1.5258    0.0104 C.3       1 <0>        -0.1713
      2 C2          0.0021   -0.0041    0.0020 C.3       1 <0>         0.1352
      3 N1         -1.3723   -0.5112    0.0124 N.pl3     1 <0>        -0.5775
      4 C3         -2.0241   -0.7562    1.2210 C.ar      1 <0>         0.3802
      5 C4         -3.1924   -0.0728    1.5496 C.ar      1 <0>         0.0974
      6 C5         -3.8444   -0.3876    2.7377 C.ar      1 <0>        -0.0726
      7 C6         -3.2873   -1.3499    3.5676 C.ar      1 <0>        -0.1349
      8 C7         -2.1082   -1.9638    3.1927 C.ar      1 <0>         0.1841
      9 N2         -1.5189   -1.6578    2.0516 N.ar      1 <0>        -0.4680
     10 Cl1        -1.3916   -3.1524    4.2354 Cl        1 <0>        -0.0155
     11 N3         -3.6954    0.9509    0.7499 N.am      1 <0>        -0.5371
     12 C8         -3.7342    0.9793   -0.5741 C.2       1 <0>         0.5767
     13 O1         -4.2310    1.9594   -1.0944 O.2       1 <0>        -0.5165
     14 C9         -3.2291   -0.0691   -1.4660 C.ar      1 <0>        -0.2008
     15 C10        -2.0401   -0.7469   -1.1771 C.ar      1 <0>         0.4250
     16 N4         -1.5584   -1.6316   -2.0382 N.ar      1 <0>        -0.4962
     17 C11        -2.1937   -1.9343   -3.1534 C.ar      1 <0>         0.1810
     18 C12        -3.3989   -1.3379   -3.4760 C.ar      1 <0>        -0.1672
     19 C13        -3.9299   -0.3963   -2.6320 C.ar      1 <0>         0.0241
     20 C14        -4.1228   -1.7223   -4.7406 C.3       1 <0>         0.1060
     21 O2         -5.0092   -2.8101   -4.4701 O.3       1 <0>        -0.3047
     22 C15        -5.7435   -3.2815   -5.5121 C.ar      1 <0>         0.0783
     23 C16        -6.6336   -4.3350   -5.3286 C.ar      1 <0>        -0.1071
     24 C17        -7.3599   -4.7810   -6.4208 C.ar      1 <0>        -0.1303
     25 C18        -7.1782   -4.1698   -7.6474 C.ar      1 <0>         0.0620
     26 N5         -6.3262   -3.1733   -7.7875 N.ar      1 <0>        -0.4493
     27 C19        -5.6203   -2.7155   -6.7724 C.ar      1 <0>         0.0171
     28 C20        -4.2393    2.1194    1.4464 C.3       1 <0>         0.0638
     29 H1          1.0039    1.9031    0.0027 H         1 <0>         0.0747
     30 H2         -0.5459    1.8868   -0.8726 H         1 <0>         0.0551
     31 H3         -0.5289    1.8773    0.9072 H         1 <0>         0.0547
     32 H4          0.5123   -0.3556   -0.8948 H         1 <0>         0.0867
     33 H5          0.5293   -0.3651    0.8851 H         1 <0>         0.0862
     34 H6         -4.7657    0.1068    3.0083 H         1 <0>         0.1601
     35 H7         -3.7704   -1.6162    4.4961 H         1 <0>         0.1594
     36 H8         -1.7650   -2.6616   -3.8270 H         1 <0>         0.1709
     37 H9         -4.8671    0.0859   -2.8678 H         1 <0>         0.1511
     38 H10        -4.6951   -0.8693   -5.1052 H         1 <0>         0.0819
     39 H11        -3.3981   -2.0237   -5.4969 H         1 <0>         0.0843
     40 H12        -6.7551   -4.7941   -4.3586 H         1 <0>         0.1428
     41 H13        -8.0597   -5.5969   -6.3152 H         1 <0>         0.1440
     42 H14        -7.7413   -4.5134   -8.5025 H         1 <0>         0.1599
     43 H15        -4.9358   -1.8941   -6.9248 H         1 <0>         0.1585
     44 H16        -3.4467    2.8513    1.6018 H         1 <0>         0.0703
     45 H17        -5.0320    2.5644    0.8450 H         1 <0>         0.0960
     46 H18        -4.6439    1.8117    2.4106 H         1 <0>         0.0816
@<TRIPOS>BOND
     1    1    2 1
     2    1   29 1
     3    1   30 1
     4    1   31 1
     5    2    3 1
     6    2   32 1
     7    2   33 1
     8    3   15 1
     9    3    4 1
    10    4    9 ar
    11    4    5 ar
    12    5    6 ar
    13    5   11 1
    14    6    7 ar
    15    6   34 1
    16    7    8 ar
    17    7   35 1
    18    8    9 ar
    19    8   10 1
    20   11   12 am
    21   11   28 1
    22   12   13 2
    23   12   14 1
    24   14   19 ar
    25   14   15 ar
    26   15   16 ar
    27   16   17 ar
    28   17   18 ar
    29   17   36 1
    30   18   19 ar
    31   18   20 1
    32   19   37 1
    33   20   21 1
    34   20   38 1
    35   20   39 1
    36   21   22 1
    37   22   27 ar
    38   22   23 ar
    39   23   24 ar
    40   23   40 1
    41   24   25 ar
    42   24   41 1
    43   25   26 ar
    44   25   42 1
    45   26   27 ar
    46   27   43 1
    47   28   44 1
    48   28   45 1
    49   28   46 1
@<TRIPOS>MOLECULE
CHEMBL82481
   36    39     0     0     0
SMALL
USER_CHARGES

@<TRIPOS>ATOM
      1 C1         -0.0167    1.3794    0.0096 C.ar      1 <0>        -0.0609
      2 C2          1.1662    2.0932    0.0022 C.ar      1 <0>        -0.1437
      3 C3          2.3798    1.4195   -0.0131 C.ar      1 <0>         0.1864
      4 C4          2.3898    0.0286   -0.0207 C.ar      1 <0>        -0.1175
      5 C5          1.2116   -0.6809   -0.0136 C.ar      1 <0>        -0.0477
      6 C6          0.0021   -0.0041    0.0020 C.ar      1 <0>        -0.0622
      7 Cl1        -1.4895   -0.8923    0.0121 Cl        1 <0>        -0.0573
      8 C7          3.7286   -0.6723   -0.0372 C.3       1 <0>         0.3664
      9 N1          4.9281    0.1824   -0.0441 N.am      1 <0>        -0.7089
     10 C8          4.7807    1.5195   -0.0355 C.2       1 <0>         0.7144
     11 O1          5.7797    2.2126   -0.0417 O.2       1 <0>        -0.5655
     12 N2          3.5854    2.1230   -0.0213 N.am      1 <0>        -0.6592
     13 C9          3.7765   -1.5315   -1.2315 C.1       1 <0>        -0.1262
     14 C10         3.8147   -2.2167   -2.1840 C.1       1 <0>        -0.0965
     15 C11         3.8613   -3.0526   -3.3458 C.ar      1 <0>         0.1793
     16 C12         2.7738   -3.0971   -4.2217 C.ar      1 <0>         0.0824
     17 N3          2.8228   -3.8692   -5.2905 N.ar      1 <0>        -0.4321
     18 C13         3.8984   -4.5995   -5.5327 C.ar      1 <0>         0.0583
     19 C14         4.9782   -4.5592   -4.6677 C.ar      1 <0>         0.0599
     20 N4          4.9427   -3.7857   -3.5983 N.ar      1 <0>        -0.4227
     21 C15         3.8020   -1.5786    1.1932 C.3       1 <0>        -0.1739
     22 C16         4.7931   -1.1961    2.2943 C.3       1 <0>        -0.1624
     23 C17         5.0787   -2.3981    1.3918 C.3       1 <0>        -0.1692
     24 H1         -0.9606    1.9038    0.0260 H         1 <0>         0.1452
     25 H2          1.1467    3.1730    0.0078 H         1 <0>         0.1456
     26 H3          1.2287   -1.7608   -0.0199 H         1 <0>         0.1442
     27 H4          5.8133   -0.2140   -0.0544 H         1 <0>         0.4320
     28 H5          3.5560    3.0925   -0.0157 H         1 <0>         0.4291
     29 H6          1.8950   -2.5012   -4.0243 H         1 <0>         0.1759
     30 H7          3.9342   -5.2301   -6.4087 H         1 <0>         0.1778
     31 H8          5.8536   -5.1581   -4.8706 H         1 <0>         0.1788
     32 H9          2.8597   -2.0329    1.4994 H         1 <0>         0.1261
     33 H10         5.3928   -0.2987    2.1421 H         1 <0>         0.1011
     34 H11         4.5028   -1.3985    3.3253 H         1 <0>         0.1032
     35 H12         4.9763   -3.3913    1.8291 H         1 <0>         0.1050
     36 H13         5.8663   -2.2915    0.6459 H         1 <0>         0.0946
@<TRIPOS>BOND
     1    1    6 ar
     2    1    2 ar
     3    1   24 1
     4    2    3 ar
     5    2   25 1
     6    3   12 1
     7    3    4 ar
     8    4    5 ar
     9    4    8 1
    10    5    6 ar
    11    5   26 1
    12    6    7 1
    13    8    9 1
    14    8   13 1
    15    8   21 1
    16    9   10 am
    17    9   27 1
    18   10   11 2
    19   10   12 am
    20   12   28 1
    21   13   14 3
    22   14   15 1
    23   15   20 ar
    24   15   16 ar
    25   16   17 ar
    26   16   29 1
    27   17   18 ar
    28   18   19 ar
    29   18   30 1
    30   19   20 ar
    31   19   31 1
    32   21   23 1
    33   21   22 1
    34   21   32 1
    35   22   23 1
    36   22   33 1
    37   22   34 1
    38   23   35 1
    39   23   36 1
@<TRIPOS>MOLECULE
CHEMBL82481__1
   36    39     0     0     0
SMALL
USER_CHARGES

@<TRIPOS>ATOM
      1 C1         -0.0167    1.3794    0.0096 C.ar      1 <0>        -0.0600
      2 C2          1.1662    2.0932    0.0022 C.ar      1 <0>        -0.1450
      3 C3          2.3798    1.4195   -0.0131 C.ar      1 <0>         0.1858
      4 C4          2.3898    0.0286   -0.0207 C.ar      1 <0>        -0.1211
      5 C5          1.2116   -0.6809   -0.0136 C.ar      1 <0>        -0.0427
      6 C6          0.0021   -0.0041    0.0020 C.ar      1 <0>        -0.0635
      7 Cl1        -1.4895   -0.8923    0.0121 Cl        1 <0>        -0.0571
      8 C7          3.7286   -0.6723   -0.0372 C.3       1 <0>         0.3647
      9 N1          4.9281    0.1824   -0.0441 N.am      1 <0>        -0.7058
     10 C8          4.7807    1.5195   -0.0355 C.2       1 <0>         0.7128
     11 O1          5.7797    2.2126   -0.0417 O.2       1 <0>        -0.5661
     12 N2          3.5854    2.1230   -0.0213 N.am      1 <0>        -0.6603
     13 C9          3.7993   -1.5443    1.1466 C.1       1 <0>        -0.1254
     14 C10         3.8556   -2.2397    2.0907 C.1       1 <0>        -0.0988
     15 C11         3.9243   -3.0880    3.2424 C.ar      1 <0>         0.1779
     16 C12         2.8492   -3.1508    4.1323 C.ar      1 <0>         0.0827
     17 N3          2.9186   -3.9342    5.1916 N.ar      1 <0>        -0.4315
     18 C13         4.0029   -4.6587    5.4111 C.ar      1 <0>         0.0589
     19 C14         5.0709   -4.5997    4.5327 C.ar      1 <0>         0.0597
     20 N4          5.0103   -3.8238    3.4662 N.ar      1 <0>        -0.4214
     21 C15         3.7784   -1.5653   -1.2786 C.3       1 <0>        -0.1718
     22 C16         3.6475   -3.0752   -1.0684 C.3       1 <0>        -0.1678
     23 C17         5.0002   -2.4703   -1.4493 C.3       1 <0>        -0.1652
     24 H1         -0.9606    1.9038    0.0260 H         1 <0>         0.1451
     25 H2          1.1467    3.1730    0.0078 H         1 <0>         0.1454
     26 H3          1.2287   -1.7608   -0.0199 H         1 <0>         0.1447
     27 H4          5.8133   -0.2140   -0.0544 H         1 <0>         0.4328
     28 H5          3.5560    3.0925   -0.0157 H         1 <0>         0.4288
     29 H6          1.9636   -2.5591    3.9537 H         1 <0>         0.1751
     30 H7          4.0555   -5.2987    6.2795 H         1 <0>         0.1780
     31 H8          5.9540   -5.1934    4.7175 H         1 <0>         0.1794
     32 H9          3.3356   -1.1421   -2.1802 H         1 <0>         0.1246
     33 H10         3.5259   -3.4322   -0.0457 H         1 <0>         0.1012
     34 H11         3.1183   -3.6456   -1.8317 H         1 <0>         0.1043
     35 H12         5.3610   -2.6427   -2.4633 H         1 <0>         0.1049
     36 H13         5.7686   -2.4294   -0.6772 H         1 <0>         0.0967
@<TRIPOS>BOND
     1    1    6 ar
     2    1    2 ar
     3    1   24 1
     4    2    3 ar
     5    2   25 1
     6    3   12 1
     7    3    4 ar
     8    4    5 ar
     9    4    8 1
    10    5    6 ar
    11    5   26 1
    12    6    7 1
    13    8    9 1
    14    8   13 1
    15    8   21 1
    16    9   10 am
    17    9   27 1
    18   10   11 2
    19   10   12 am
    20   12   28 1
    21   13   14 3
    22   14   15 1
    23   15   20 ar
    24   15   16 ar
    25   16   17 ar
    26   16   29 1
    27   17   18 ar
    28   18   19 ar
    29   18   30 1
    30   19   20 ar
    31   19   31 1
    32   21   23 1
    33   21   22 1
    34   21   32 1
    35   22   23 1
    36   22   33 1
    37   22   34 1
    38   23   35 1
    39   23   36 1
@<TRIPOS>MOLECULE
CHEMBL69952
   39    40     0     0     0
SMALL
USER_CHARGES

@<TRIPOS>ATOM
      1 C1          1.1302   -0.7104   -0.0236 C.ar      1 <0>        -0.0231
      2 C2          2.3504   -0.0579   -0.0282 C.ar      1 <0>        -0.1841
      3 C3          2.3742    1.3320   -0.0180 C.ar      1 <0>         0.3394
      4 N1          1.2468    2.0257   -0.0042 N.ar      1 <0>        -0.4069
      5 C4          0.0689    1.4319    0.0004 C.ar      1 <0>         0.1556
      6 C5         -0.0295    0.0536   -0.0090 C.ar      1 <0>        -0.1600
      7 Br1        -1.7252   -0.7834   -0.0028 Br        1 <0>        -0.0242
      8 N2          3.5966    2.0016   -0.0220 N.pl3     1 <0>        -0.6076
      9 C6          3.6285    3.3456   -0.1173 C.2       1 <0>         0.5181
     10 S1          2.1688    4.2399   -0.0988 S.2       1 <0>        -0.4752
     11 N3          4.8096    3.9855   -0.2271 N.pl3     1 <0>        -0.6936
     12 C7          4.8442    5.4464   -0.3306 C.3       1 <0>         0.1041
     13 C8          6.2962    5.9154   -0.4436 C.3       1 <0>        -0.0238
     14 N4          6.3310    7.3803   -0.5474 N.4       1 <0>        -0.3769
     15 C9          5.6815    7.7964   -1.7962 C.3       1 <0>        -0.0164
     16 C10         5.6428    9.3242   -1.8710 C.3       1 <0>        -0.1457
     17 C11         7.0738    9.8682   -1.8322 C.3       1 <0>        -0.1402
     18 C12         7.7658    9.3667   -0.5614 C.3       1 <0>        -0.1464
     19 C13         7.7258    7.8372   -0.5352 C.3       1 <0>        -0.0055
     20 H1          1.0807   -1.7892   -0.0357 H         1 <0>         0.1529
     21 H2          3.2720   -0.6209   -0.0391 H         1 <0>         0.1437
     22 H3         -0.8300    2.0305    0.0122 H         1 <0>         0.1723
     23 H4          4.4244    1.5002    0.0438 H         1 <0>         0.4133
     24 H5          5.6366    3.4788   -0.2376 H         1 <0>         0.4006
     25 H6          4.2909    5.7612   -1.2154 H         1 <0>         0.1077
     26 H7          4.3890    5.8845    0.5575 H         1 <0>         0.1077
     27 H8          6.8495    5.6006    0.4412 H         1 <0>         0.1383
     28 H9          6.7515    5.4773   -1.3317 H         1 <0>         0.1368
     29 H10         6.2429    7.4056   -2.6449 H         1 <0>         0.1303
     30 H11         4.6643    7.4058   -1.8238 H         1 <0>         0.1359
     31 H12         5.1618    9.6311   -2.7997 H         1 <0>         0.1144
     32 H13         5.0813    9.7160   -1.0228 H         1 <0>         0.0903
     33 H14         7.6208    9.5179   -2.7075 H         1 <0>         0.0818
     34 H15         7.0495   10.9579   -1.8282 H         1 <0>         0.0956
     35 H16         8.8023    9.7039   -0.5541 H         1 <0>         0.1137
     36 H17         7.2484    9.7594    0.3139 H         1 <0>         0.0895
     37 H18         8.2179    7.4768    0.3682 H         1 <0>         0.1311
     38 H19         8.2437    7.4456   -1.4107 H         1 <0>         0.1296
     39 H20         5.8391    7.7837    0.2358 H         1 <0>         0.4268
@<TRIPOS>BOND
     1    1    6 ar
     2    1    2 ar
     3    1   20 1
     4    2    3 ar
     5    2   21 1
     6    3    4 ar
     7    3    8 1
     8    4    5 ar
     9    5    6 ar
    10    5   22 1
    11    6    7 1
    12    8    9 1
    13    8   23 1
    14    9   10 2
    15    9   11 1
    16   11   12 1
    17   11   24 1
    18   12   13 1
    19   12   25 1
    20   12   26 1
    21   13   14 1
    22   13   27 1
    23   13   28 1
    24   14   19 1
    25   14   15 1
    26   14   39 1
    27   15   16 1
    28   15   29 1
    29   15   30 1
    30   16   17 1
    31   16   31 1
    32   16   32 1
    33   17   18 1
    34   17   33 1
    35   17   34 1
    36   18   19 1
    37   18   35 1
    38   18   36 1
    39   19   37 1
    40   19   38 1
@<TRIPOS>MOLECULE
CHEMBL104658
   46    47     0     0     0
SMALL
USER_CHARGES

@<TRIPOS>ATOM
      1 C1          1.8831   -2.6662   -1.6038 C.3       1 <0>        -0.1508
      2 C2          0.8885   -1.9660   -0.6756 C.3       1 <0>        -0.1189
      3 C3         -0.4814   -2.6363   -0.7972 C.3       1 <0>         0.0373
      4 O1         -1.4103   -1.9823    0.0697 O.3       1 <0>        -0.3446
      5 C4         -2.7494   -2.4689   -0.0401 C.3       1 <0>         0.2953
      6 C5         -3.1840   -2.3971   -1.4447 C.1       1 <0>        -0.2193
      7 C6         -3.5306   -2.3399   -2.5649 C.1       1 <0>        -0.0675
      8 C7         -3.9651   -2.2682   -3.9694 C.3       1 <0>        -0.0622
      9 C8         -5.0542   -1.2527   -4.3210 C.3       1 <0>        -0.1596
     10 C9         -5.3809   -2.7472   -4.2962 C.3       1 <0>        -0.1574
     11 C10        -3.6620   -1.6247    0.8118 C.2       1 <0>        -0.2463
     12 C11        -3.1429   -0.7168    1.6874 C.2       1 <0>         0.0556
     13 C12        -4.0127    0.0569    2.4685 C.2       1 <0>        -0.2051
     14 C13        -5.3514   -0.1023    2.3481 C.2       1 <0>         0.1837
     15 N1         -5.8663   -1.0068    1.4764 N.am      1 <0>        -0.6019
     16 C14        -5.0569   -1.7606    0.7082 C.2       1 <0>         0.5303
     17 O2         -5.5350   -2.5657   -0.0749 O.2       1 <0>        -0.5214
     18 C15        -6.2803    0.7330    3.1910 C.3       1 <0>        -0.1344
     19 C16        -3.4577    1.0648    3.4418 C.3       1 <0>        -0.0678
     20 C17        -3.1262    0.3686    4.7633 C.3       1 <0>        -0.1525
     21 C18        -2.8051   -3.9214    0.4374 C.3       1 <0>         0.4340
     22 F1         -2.2586   -4.0112    1.7221 F         1 <0>        -0.1721
     23 F2         -4.1357   -4.3524    0.4655 F         1 <0>        -0.1549
     24 F3         -2.0717   -4.7287   -0.4388 F         1 <0>        -0.1783
     25 H1          2.8591   -2.1887   -1.5172 H         1 <0>         0.0652
     26 H2          1.9659   -3.7159   -1.3220 H         1 <0>         0.0582
     27 H3          1.5328   -2.5929   -2.6333 H         1 <0>         0.0571
     28 H4          1.2388   -2.0393    0.3539 H         1 <0>         0.0740
     29 H5          0.8057   -0.9163   -0.9574 H         1 <0>         0.0725
     30 H6         -0.8317   -2.5630   -1.8268 H         1 <0>         0.0636
     31 H7         -0.3986   -3.6860   -0.5154 H         1 <0>         0.0696
     32 H8         -3.1881   -2.4506   -4.7118 H         1 <0>         0.1317
     33 H9         -5.4490   -0.6378   -3.5122 H         1 <0>         0.0967
     34 H10        -4.9939   -0.7668   -5.2948 H         1 <0>         0.1068
     35 H11        -5.5355   -3.2445   -5.2538 H         1 <0>         0.1070
     36 H12        -5.9906   -3.1155   -3.4712 H         1 <0>         0.1030
     37 H13        -2.0735   -0.5956    1.7782 H         1 <0>         0.1502
     38 H14        -6.8282   -1.1085    1.4032 H         1 <0>         0.4185
     39 H15        -6.5238    1.6534    2.6603 H         1 <0>         0.0950
     40 H16        -7.1951    0.1736    3.3868 H         1 <0>         0.0810
     41 H17        -5.7939    0.9761    4.1357 H         1 <0>         0.1003
     42 H18        -2.5524    1.5090    3.0280 H         1 <0>         0.0776
     43 H19        -4.1977    1.8454    3.6180 H         1 <0>         0.0767
     44 H20        -4.0315   -0.0756    5.1770 H         1 <0>         0.0548
     45 H21        -2.3861   -0.4120    4.5870 H         1 <0>         0.0582
     46 H22        -2.7247    1.0976    5.4672 H         1 <0>         0.0610
@<TRIPOS>BOND
     1    1    2 1
     2    1   25 1
     3    1   26 1
     4    1   27 1
     5    2    3 1
     6    2   28 1
     7    2   29 1
     8    3    4 1
     9    3   30 1
    10    3   31 1
    11    4    5 1
    12    5    6 1
    13    5   21 1
    14    5   11 1
    15    6    7 3
    16    7    8 1
    17    8   10 1
    18    8    9 1
    19    8   32 1
    20    9   10 1
    21    9   33 1
    22    9   34 1
    23   10   35 1
    24   10   36 1
    25   11   12 2
    26   11   16 1
    27   12   13 1
    28   12   37 1
    29   13   14 2
    30   13   19 1
    31   14   15 1
    32   14   18 1
    33   15   16 am
    34   15   38 1
    35   16   17 2
    36   18   39 1
    37   18   40 1
    38   18   41 1
    39   19   20 1
    40   19   42 1
    41   19   43 1
    42   20   44 1
    43   20   45 1
    44   20   46 1
    45   21   22 1
    46   21   23 1
    47   21   24 1
@<TRIPOS>MOLECULE
CHEMBL104658__1
   46    47     0     0     0
SMALL
USER_CHARGES

@<TRIPOS>ATOM
      1 C1          0.8873   -1.1200    2.9503 C.3       1 <0>        -0.1507
      2 C2          0.1597   -0.8850    1.6250 C.3       1 <0>        -0.1189
      3 C3         -0.8969   -1.9731    1.4234 C.3       1 <0>         0.0367
      4 O1         -1.5764   -1.7536    0.1856 O.3       1 <0>        -0.3448
      5 C4         -2.6669   -2.6478   -0.0453 C.3       1 <0>         0.2953
      6 C5         -3.5943   -2.5957    1.0966 C.1       1 <0>        -0.2194
      7 C6         -4.3340   -2.5542    2.0073 C.1       1 <0>        -0.0677
      8 C7         -5.2615   -2.5022    3.1492 C.3       1 <0>        -0.0626
      9 C8         -5.3538   -3.7417    4.0413 C.3       1 <0>        -0.1603
     10 C9         -6.5027   -3.3949    3.0924 C.3       1 <0>        -0.1583
     11 C10        -3.3932   -2.2404   -1.3014 C.2       1 <0>        -0.2463
     12 C11        -2.8717   -1.2809   -2.1186 C.2       1 <0>         0.0555
     13 C12        -3.5662   -0.9197   -3.2816 C.2       1 <0>        -0.2053
     14 C13        -4.7405   -1.5221   -3.5819 C.2       1 <0>         0.1838
     15 N1         -5.2582   -2.4766   -2.7671 N.am      1 <0>        -0.6017
     16 C14        -4.6120   -2.8493   -1.6460 C.2       1 <0>         0.5300
     17 O2         -5.0874   -3.7130   -0.9263 O.2       1 <0>        -0.5210
     18 C15        -5.4814   -1.1287   -4.8339 C.3       1 <0>        -0.1344
     19 C16        -3.0060    0.1387   -4.1965 C.3       1 <0>        -0.0681
     20 C17        -3.4250    1.5215   -3.6933 C.3       1 <0>        -0.1518
     21 C18        -2.1331   -4.0728   -0.2043 C.3       1 <0>         0.4336
     22 F1         -1.5562   -4.4916    0.9995 F         1 <0>        -0.1788
     23 F2         -3.1861   -4.9305   -0.5401 F         1 <0>        -0.1535
     24 F3         -1.1688   -4.0992   -1.2175 F         1 <0>        -0.1721
     25 H1          1.6400   -0.3449    3.0940 H         1 <0>         0.0651
     26 H2          0.1695   -1.0858    3.7699 H         1 <0>         0.0571
     27 H3          1.3706   -2.0968    2.9312 H         1 <0>         0.0582
     28 H4         -0.3236    0.0917    1.6441 H         1 <0>         0.0722
     29 H5          0.8775   -0.9193    0.8055 H         1 <0>         0.0739
     30 H6         -0.4135   -2.9499    1.4043 H         1 <0>         0.0703
     31 H7         -1.6147   -1.9388    2.2430 H         1 <0>         0.0639
     32 H8         -5.3634   -1.5283    3.6280 H         1 <0>         0.1315
     33 H9         -4.7278   -4.5957    3.7827 H         1 <0>         0.0994
     34 H10        -5.5164   -3.5835    5.1075 H         1 <0>         0.1075
     35 H11        -7.4212   -3.0085    3.5342 H         1 <0>         0.1063
     36 H12        -6.6326   -4.0208    2.2094 H         1 <0>         0.1027
     37 H13        -1.9343   -0.8044   -1.8722 H         1 <0>         0.1502
     38 H14        -6.1013   -2.8977   -2.9970 H         1 <0>         0.4186
     39 H15        -5.1544   -1.7571   -5.6622 H         1 <0>         0.0955
     40 H16        -6.5523   -1.2602   -4.6788 H         1 <0>         0.0808
     41 H17        -5.2735   -0.0842   -5.0661 H         1 <0>         0.1000
     42 H18        -1.9182    0.0704   -4.2079 H         1 <0>         0.0781
     43 H19        -3.3902   -0.0127   -5.2053 H         1 <0>         0.0769
     44 H20        -4.5128    1.5898   -3.6820 H         1 <0>         0.0543
     45 H21        -3.0408    1.6728   -2.6846 H         1 <0>         0.0574
     46 H22        -3.0198    2.2870   -4.3551 H         1 <0>         0.0610
@<TRIPOS>BOND
     1    1    2 1
     2    1   25 1
     3    1   26 1
     4    1   27 1
     5    2    3 1
     6    2   28 1
     7    2   29 1
     8    3    4 1
     9    3   30 1
    10    3   31 1
    11    4    5 1
    12    5    6 1
    13    5   21 1
    14    5   11 1
    15    6    7 3
    16    7    8 1
    17    8   10 1
    18    8    9 1
    19    8   32 1
    20    9   10 1
    21    9   33 1
    22    9   34 1
    23   10   35 1
    24   10   36 1
    25   11   12 2
    26   11   16 1
    27   12   13 1
    28   12   37 1
    29   13   14 2
    30   13   19 1
    31   14   15 1
    32   14   18 1
    33   15   16 am
    34   15   38 1
    35   16   17 2
    36   18   39 1
    37   18   40 1
    38   18   41 1
    39   19   20 1
    40   19   42 1
    41   19   43 1
    42   20   44 1
    43   20   45 1
    44   20   46 1
    45   21   22 1
    46   21   23 1
    47   21   24 1
@<TRIPOS>MOLECULE
CHEMBL91891
   46    50     0     0     0
SMALL
USER_CHARGES

@<TRIPOS>ATOM
      1 C1         -0.0797    1.5145   -0.4512 C.3       1 <0>        -0.1542
      2 C2         -0.0707   -0.0155   -0.4517 C.3       1 <0>        -0.0985
      3 C3         -1.4333   -0.5336    0.0129 C.3       1 <0>         0.1331
      4 C4         -2.4669   -0.1042   -0.9632 C.2       1 <0>         0.4203
      5 O1         -2.1508    0.0876   -2.1200 O.2       1 <0>        -0.4355
      6 C5         -3.8131    0.0853   -0.5707 C.2       1 <0>        -0.0917
      7 C6         -4.7914    0.5796   -1.4282 C.2       1 <0>        -0.0883
      8 C7         -5.9619    0.7069   -0.6839 C.2       1 <0>        -0.1994
      9 C8         -5.6997    0.2894    0.5766 C.2       1 <0>         0.0314
     10 N1         -4.4057   -0.1435    0.6455 N.pl3     1 <0>        -0.3589
     11 C9         -3.8854   -0.7683    1.7889 C.ar      1 <0>         0.0825
     12 C10        -4.7547   -1.4769    2.6113 C.ar      1 <0>        -0.1109
     13 C11        -4.2902   -2.0922    3.7555 C.ar      1 <0>        -0.1053
     14 C12        -2.9525   -2.0082    4.0961 C.ar      1 <0>        -0.0965
     15 C13        -2.0766   -1.3134    3.2849 C.ar      1 <0>        -0.1100
     16 C14        -2.5309   -0.6993    2.1287 C.ar      1 <0>         0.1154
     17 O2         -1.6792   -0.0593    1.3130 O.3       1 <0>        -0.3036
     18 C15        -1.3944   -2.0398    0.0446 C.ar      1 <0>        -0.1226
     19 C16        -2.0672   -2.7647   -0.9374 C.ar      1 <0>        -0.1072
     20 C17        -2.0525   -4.1256   -0.9374 C.ar      1 <0>        -0.0973
     21 C18        -1.3488   -4.8134    0.0660 C.ar      1 <0>        -0.0432
     22 C19        -1.3102   -6.2179    0.0986 C.ar      1 <0>        -0.1071
     23 C20        -0.6182   -6.8498    1.0855 C.ar      1 <0>        -0.1103
     24 C21         0.0549   -6.1248    2.0672 C.ar      1 <0>        -0.1143
     25 C22         0.0397   -4.7640    2.0675 C.ar      1 <0>        -0.1016
     26 C23        -0.6643   -4.0763    1.0643 C.ar      1 <0>        -0.0500
     27 C24        -0.6981   -2.6717    1.0285 C.ar      1 <0>        -0.0706
     28 H1          0.8910    1.8836   -0.7821 H         1 <0>         0.0645
     29 H2         -0.8549    1.8735   -1.1281 H         1 <0>         0.0569
     30 H3         -0.2815    1.8763    0.5570 H         1 <0>         0.0631
     31 H4          0.1311   -0.3774   -1.4598 H         1 <0>         0.0954
     32 H5          0.7045   -0.3745    0.2252 H         1 <0>         0.0816
     33 H6         -4.6666    0.8197   -2.4738 H         1 <0>         0.1563
     34 H7         -6.9103    1.0737   -1.0479 H         1 <0>         0.1538
     35 H8         -6.4014    0.2978    1.3975 H         1 <0>         0.1754
     36 H9         -5.8010   -1.5458    2.3526 H         1 <0>         0.1358
     37 H10        -4.9733   -2.6406    4.3872 H         1 <0>         0.1378
     38 H11        -2.5929   -2.4851    4.9960 H         1 <0>         0.1386
     39 H12        -1.0325   -1.2480    3.5533 H         1 <0>         0.1406
     40 H13        -2.6087   -2.2386   -1.7096 H         1 <0>         0.1226
     41 H14        -2.5791   -4.6741   -1.7044 H         1 <0>         0.1315
     42 H15        -1.8274   -6.7927   -0.6554 H         1 <0>         0.1286
     43 H16        -0.5905   -7.9292    1.1084 H         1 <0>         0.1254
     44 H17         0.5964   -6.6509    2.8396 H         1 <0>         0.1256
     45 H18         0.5656   -4.2154    2.8349 H         1 <0>         0.1283
     46 H19        -0.1775   -2.0969    1.7802 H         1 <0>         0.1326
@<TRIPOS>BOND
     1    1    2 1
     2    1   28 1
     3    1   29 1
     4    1   30 1
     5    2    3 1
     6    2   31 1
     7    2   32 1
     8    3   17 1
     9    3    4 1
    10    3   18 1
    11    4    5 2
    12    4    6 1
    13    6   10 1
    14    6    7 2
    15    7    8 1
    16    7   33 1
    17    8    9 2
    18    8   34 1
    19    9   10 1
    20    9   35 1
    21   10   11 1
    22   11   16 ar
    23   11   12 ar
    24   12   13 ar
    25   12   36 1
    26   13   14 ar
    27   13   37 1
    28   14   15 ar
    29   14   38 1
    30   15   16 ar
    31   15   39 1
    32   16   17 1
    33   18   27 ar
    34   18   19 ar
    35   19   20 ar
    36   19   40 1
    37   20   21 ar
    38   20   41 1
    39   21   26 ar
    40   21   22 ar
    41   22   23 ar
    42   22   42 1
    43   23   24 ar
    44   23   43 1
    45   24   25 ar
    46   24   44 1
    47   25   26 ar
    48   25   45 1
    49   26   27 ar
    50   27   46 1
@<TRIPOS>MOLECULE
CHEMBL91891__1
   46    50     0     0     0
SMALL
USER_CHARGES

@<TRIPOS>ATOM
      1 C1          0.7953   -0.7491   -1.0735 C.3       1 <0>        -0.1557
      2 C2          0.0021   -0.0041    0.0020 C.3       1 <0>        -0.1490
      3 C3         -1.4651   -0.4339   -0.0569 C.3       1 <0>         0.1338
      4 C4         -2.1906    0.1824    1.0830 C.2       1 <0>         0.4121
      5 O1         -2.2725   -0.4213    2.1335 O.2       1 <0>        -0.4270
      6 C5         -2.7878    1.4600    0.9681 C.2       1 <0>        -0.0913
      7 C6         -3.5582    2.0313    1.9766 C.2       1 <0>        -0.0860
      8 C7         -4.0428    3.2415    1.4857 C.2       1 <0>        -0.1992
      9 C8         -3.5678    3.3995    0.2282 C.2       1 <0>         0.0317
     10 N1         -2.7564    2.3445   -0.0804 N.pl3     1 <0>        -0.3624
     11 C9         -2.0041    2.3002   -1.2639 C.ar      1 <0>         0.0779
     12 C10        -1.6009    3.5004   -1.8392 C.ar      1 <0>        -0.1114
     13 C11        -0.8750    3.5050   -3.0124 C.ar      1 <0>        -0.1052
     14 C12        -0.5423    2.3126   -3.6290 C.ar      1 <0>        -0.0974
     15 C13        -0.9304    1.1129   -3.0651 C.ar      1 <0>        -0.1103
     16 C14        -1.6520    1.0965   -1.8822 C.ar      1 <0>         0.1154
     17 O2         -1.9955   -0.0652   -1.3053 O.3       1 <0>        -0.3049
     18 C15        -1.5371   -1.9331    0.0779 C.ar      1 <0>        -0.0676
     19 C16        -0.5668   -2.6029    0.8211 C.ar      1 <0>        -0.0895
     20 C17        -0.6024   -3.9560    0.9623 C.ar      1 <0>        -0.1059
     21 C18        -1.6319   -4.6920    0.3511 C.ar      1 <0>        -0.0442
     22 C19        -1.7022   -6.0902    0.4748 C.ar      1 <0>        -0.1083
     23 C20        -2.7139   -6.7697   -0.1308 C.ar      1 <0>        -0.1124
     24 C21        -3.6844   -6.0999   -0.8738 C.ar      1 <0>        -0.1178
     25 C22        -3.6484   -4.7468   -1.0153 C.ar      1 <0>        -0.1015
     26 C23        -2.6187   -4.0109   -0.4044 C.ar      1 <0>        -0.0536
     27 C24        -2.5517   -2.6122   -0.5234 C.ar      1 <0>        -0.0712
     28 H1          1.8127   -0.3596   -1.1097 H         1 <0>         0.0644
     29 H2          0.8215   -1.8122   -0.8345 H         1 <0>         0.0692
     30 H3          0.3168   -0.6061   -2.0423 H         1 <0>         0.0655
     31 H4          0.4108   -0.2407    0.9844 H         1 <0>         0.0884
     32 H5          0.0734    1.0696   -0.1722 H         1 <0>         0.0742
     33 H6         -3.7453    1.6147    2.9552 H         1 <0>         0.1564
     34 H7         -4.6838    3.9313    2.0146 H         1 <0>         0.1541
     35 H8         -3.7946    4.2274   -0.4272 H         1 <0>         0.1761
     36 H9         -1.8581    4.4356   -1.3643 H         1 <0>         0.1373
     37 H10        -0.5661    4.4425   -3.4508 H         1 <0>         0.1392
     38 H11         0.0202    2.3195   -4.5510 H         1 <0>         0.1401
     39 H12        -0.6706    0.1829   -3.5488 H         1 <0>         0.1437
     40 H13         0.2254   -2.0397    1.2919 H         1 <0>         0.1260
     41 H14         0.1567   -4.4616    1.5406 H         1 <0>         0.1317
     42 H15        -0.9569   -6.6226    1.0471 H         1 <0>         0.1281
     43 H16        -2.7654   -7.8442   -0.0345 H         1 <0>         0.1240
     44 H17        -4.4766   -6.6631   -1.3446 H         1 <0>         0.1241
     45 H18        -4.4071   -4.2413   -1.5943 H         1 <0>         0.1271
     46 H19        -3.2992   -2.0794   -1.0924 H         1 <0>         0.1313
@<TRIPOS>BOND
     1    1    2 1
     2    1   28 1
     3    1   29 1
     4    1   30 1
     5    2    3 1
     6    2   31 1
     7    2   32 1
     8    3   17 1
     9    3    4 1
    10    3   18 1
    11    4    5 2
    12    4    6 1
    13    6   10 1
    14    6    7 2
    15    7    8 1
    16    7   33 1
    17    8    9 2
    18    8   34 1
    19    9   10 1
    20    9   35 1
    21   10   11 1
    22   11   16 ar
    23   11   12 ar
    24   12   13 ar
    25   12   36 1
    26   13   14 ar
    27   13   37 1
    28   14   15 ar
    29   14   38 1
    30   15   16 ar
    31   15   39 1
    32   16   17 1
    33   18   27 ar
    34   18   19 ar
    35   19   20 ar
    36   19   40 1
    37   20   21 ar
    38   20   41 1
    39   21   26 ar
    40   21   22 ar
    41   22   23 ar
    42   22   42 1
    43   23   24 ar
    44   23   43 1
    45   24   25 ar
    46   24   44 1
    47   25   26 ar
    48   25   45 1
    49   26   27 ar
    50   27   46 1
@<TRIPOS>MOLECULE
CHEMBL57995
   17    18     0     0     0
SMALL
USER_CHARGES

@<TRIPOS>ATOM
      1 C1         -0.0169    1.3962    0.0097 C.ar      1 <0>        -0.1185
      2 C2          1.1599    2.0856    0.0022 C.ar      1 <0>        -0.0442
      3 C3          2.3912    1.4366   -0.0135 C.ar      1 <0>         0.0325
      4 C4          2.4808    0.0731   -0.0221 C.ar      1 <0>         0.1431
      5 C5          1.2987   -0.6938   -0.0145 C.ar      1 <0>        -0.2563
      6 C6          0.0021   -0.0041    0.0020 C.ar      1 <0>         0.2909
      7 N1         -1.1189   -0.7341    0.0084 N.ar      1 <0>        -0.5382
      8 C7         -1.0534   -2.0583    0.0002 C.ar      1 <0>         0.6196
      9 N2          0.1343   -2.7357   -0.0143 N.ar      1 <0>        -0.5962
     10 C8          1.3115   -2.0852   -0.0230 C.ar      1 <0>         0.2749
     11 O1         -2.0937   -2.6976    0.0063 O.3       1 <0>        -0.5218
     12 F1          3.6884   -0.5325   -0.0382 F         1 <0>        -0.1128
     13 F2          3.5244    2.1722   -0.0208 F         1 <0>        -0.1233
     14 H1         -0.9574    1.9268    0.0260 H         1 <0>         0.1638
     15 H2          1.1357    3.1653    0.0082 H         1 <0>         0.1602
     16 H3          2.2441   -2.6297   -0.0356 H         1 <0>         0.1970
     17 H4          0.1278   -3.7056   -0.0192 H         1 <0>         0.4293
@<TRIPOS>BOND
     1    1    6 ar
     2    1    2 ar
     3    1   14 1
     4    2    3 ar
     5    2   15 1
     6    3    4 ar
     7    3   13 1
     8    4    5 ar
     9    4   12 1
    10    5   10 ar
    11    5    6 ar
    12    6    7 ar
    13    7    8 ar
    14    8    9 ar
    15    8   11 1
    16    9   10 ar
    17    9   17 1
    18   10   16 1
@<TRIPOS>MOLECULE
CHEMBL57995__1
   16    17     0     0     0
SMALL
USER_CHARGES

@<TRIPOS>ATOM
      1 C1         -0.0169    1.3972    0.0097 C.ar      1 <0>        -0.1143
      2 C2          1.1581    2.0883    0.0022 C.ar      1 <0>        -0.0877
      3 C3          2.3832    1.4245   -0.0135 C.ar      1 <0>        -0.0147
      4 C4          2.4410    0.0585   -0.0214 C.ar      1 <0>         0.1441
      5 C5          1.2485   -0.6825   -0.0135 C.ar      1 <0>        -0.2820
      6 C6          0.0021   -0.0041    0.0020 C.ar      1 <0>         0.2371
      7 N1         -1.1248   -0.7285    0.0084 N.ar      1 <0>        -0.5976
      8 C7         -1.0668   -2.0438    0.0004 C.ar      1 <0>         0.5536
      9 N2          0.0833   -2.7121   -0.0137 N.ar      1 <0>        -0.5576
     10 C8          1.2435   -2.0886   -0.0215 C.ar      1 <0>         0.2217
     11 O1         -2.2255   -2.7452    0.0072 O.3       1 <0>        -0.6610
     12 F1          3.6354   -0.5728   -0.0371 F         1 <0>        -0.1316
     13 F2          3.5290    2.1403   -0.0215 F         1 <0>        -0.1453
     14 H1         -0.9579    1.9270    0.0260 H         1 <0>         0.1406
     15 H2          1.1392    3.1681    0.0082 H         1 <0>         0.1379
     16 H3          2.1694   -2.6444   -0.0333 H         1 <0>         0.1567
@<TRIPOS>BOND
     1    1    6 ar
     2    1    2 ar
     3    1   14 1
     4    2    3 ar
     5    2   15 1
     6    3    4 ar
     7    3   13 1
     8    4    5 ar
     9    4   12 1
    10    5   10 ar
    11    5    6 ar
    12    6    7 ar
    13    7    8 ar
    14    8    9 ar
    15    8   11 1
    16    9   10 ar
    17   10   16 1
@<TRIPOS>MOLECULE
CHEMBL57995__2
   17    18     0     0     0
SMALL
USER_CHARGES

@<TRIPOS>ATOM
      1 C1         -0.0167    1.3825    0.0096 C.ar      1 <0>        -0.1490
      2 C2          1.1709    2.0854    0.0021 C.ar      1 <0>        -0.0427
      3 C3          2.3895    1.4194   -0.0136 C.ar      1 <0>         0.0349
      4 C4          2.4336    0.0389   -0.0219 C.ar      1 <0>         0.1611
      5 C5          1.2358   -0.6886   -0.0139 C.ar      1 <0>        -0.2164
      6 C6          0.0021   -0.0041    0.0020 C.ar      1 <0>         0.2308
      7 N1         -1.1633   -0.7456    0.0082 N.am      1 <0>        -0.6415
      8 C7         -1.0924   -2.0911   -0.0007 C.2       1 <0>         0.6433
      9 N2          0.0778   -2.7399   -0.0149 N.2       1 <0>        -0.5236
     10 C8          1.2259   -2.1043   -0.0223 C.2       1 <0>         0.2863
     11 O1         -2.1256   -2.7369    0.0048 O.2       1 <0>        -0.5034
     12 F1          3.6214   -0.6047   -0.0380 F         1 <0>        -0.1039
     13 F2          3.5403    2.1270   -0.0212 F         1 <0>        -0.1189
     14 H1         -0.9584    1.9110    0.0260 H         1 <0>         0.1590
     15 H2          1.1525    3.1652    0.0081 H         1 <0>         0.1640
     16 H3          2.1543   -2.6559   -0.0353 H         1 <0>         0.1923
     17 H4         -2.0256   -0.3014    0.0191 H         1 <0>         0.4275
@<TRIPOS>BOND
     1    1    6 ar
     2    1    2 ar
     3    1   14 1
     4    2    3 ar
     5    2   15 1
     6    3    4 ar
     7    3   13 1
     8    4    5 ar
     9    4   12 1
    10    5   10 1
    11    5    6 ar
    12    6    7 1
    13    7    8 am
    14    7   17 1
    15    8    9 1
    16    8   11 2
    17    9   10 2
    18   10   16 1
@<TRIPOS>MOLECULE
CHEMBL135804
   34    35     0     0     0
SMALL
USER_CHARGES

@<TRIPOS>ATOM
      1 C1         -0.0178    1.4608    0.0101 C.3       1 <0>         0.0704
      2 N1          0.0021   -0.0041    0.0020 N.pl3     1 <0>        -0.4467
      3 C2          0.0082   -0.7923   -1.1104 C.2       1 <0>        -0.0208
      4 C3          0.0273   -2.0811   -0.7139 C.2       1 <0>        -0.2001
      5 C4          0.0332   -2.0887    0.6950 C.2       1 <0>        -0.1928
      6 C5          0.0234   -0.8043    1.1057 C.2       1 <0>         0.0264
      7 C6          0.0306   -0.3345    2.5376 C.3       1 <0>        -0.0614
      8 C7          1.4718   -0.2754    3.0477 C.3       1 <0>         0.1478
      9 N2          1.4787    0.1813    4.4397 N.pl3     1 <0>        -0.7099
     10 C8          2.6657    0.3128    5.1118 C.2       1 <0>         0.5573
     11 N3          2.6720    0.7236    6.3640 N.2       1 <0>        -0.6419
     12 C9          3.8502    0.8541    7.0311 C.ar      1 <0>         0.3803
     13 C10         3.8467    1.2860    8.3642 C.ar      1 <0>        -0.1975
     14 C11         5.0335    1.4147    9.0292 C.ar      1 <0>        -0.0238
     15 C12         6.2228    1.1068    8.3466 C.ar      1 <0>        -0.1850
     16 C13         6.1545    0.6815    7.0179 C.ar      1 <0>         0.1732
     17 N4          4.9928    0.5645    6.4112 N.ar      1 <0>        -0.4280
     18 C14         7.4887    1.2280    9.0048 C.1       1 <0>         0.2849
     19 N5          8.4930    1.3242    9.5270 N.1       1 <0>        -0.4763
     20 S1          4.1836   -0.0675    4.3018 S.3       1 <0>        -0.7840
     21 H1          1.0048    1.8381    0.0023 H         1 <0>         0.0744
     22 H2         -0.5450    1.8219   -0.8730 H         1 <0>         0.0802
     23 H3         -0.5280    1.8123    0.9069 H         1 <0>         0.0820
     24 H4         -0.0011   -0.4446   -2.1329 H         1 <0>         0.1583
     25 H5          0.0364   -2.9480   -1.3579 H         1 <0>         0.1330
     26 H6          0.0477   -2.9626    1.3294 H         1 <0>         0.1344
     27 H7         -0.4168    0.6577    2.5967 H         1 <0>         0.0686
     28 H8         -0.5437   -1.0291    3.1507 H         1 <0>         0.0867
     29 H9          1.9191   -1.2676    2.9887 H         1 <0>         0.0733
     30 H10         2.0460    0.4192    2.4346 H         1 <0>         0.0647
     31 H11         2.9155    1.5153    8.8609 H         1 <0>         0.1245
     32 H12         5.0571    1.7462   10.0568 H         1 <0>         0.1217
     33 H13         7.0630    0.4426    6.4850 H         1 <0>         0.1393
     34 H14         0.6431    0.3907    4.8856 H         1 <0>         0.3867
@<TRIPOS>BOND
     1    1    2 1
     2    1   21 1
     3    1   22 1
     4    1   23 1
     5    2    6 1
     6    2    3 1
     7    3    4 2
     8    3   24 1
     9    4    5 1
    10    4   25 1
    11    5    6 2
    12    5   26 1
    13    6    7 1
    14    7    8 1
    15    7   27 1
    16    7   28 1
    17    8    9 1
    18    8   29 1
    19    8   30 1
    20    9   10 1
    21    9   34 1
    22   10   11 2
    23   10   20 1
    24   11   12 1
    25   12   17 ar
    26   12   13 ar
    27   13   14 ar
    28   13   31 1
    29   14   15 ar
    30   14   32 1
    31   15   16 ar
    32   15   18 1
    33   16   17 ar
    34   16   33 1
    35   18   19 3
@<TRIPOS>MOLECULE
CHEMBL135804__1
   35    36     0     0     0
SMALL
USER_CHARGES

@<TRIPOS>ATOM
      1 C1         -0.0703    1.3441    0.0202 C.3       1 <0>         0.0690
      2 N1         -0.0302   -0.1203    0.0301 N.pl3     1 <0>        -0.4466
      3 C2         -0.0206   -0.9222   -1.0725 C.2       1 <0>        -0.0095
      4 C3          0.0190   -2.2055   -0.6602 C.2       1 <0>        -0.1990
      5 C4          0.0344   -2.1956    0.7486 C.2       1 <0>        -0.1836
      6 C5          0.0096   -0.9064    1.1434 C.2       1 <0>         0.0078
      7 C6          0.0198   -0.4188    2.5693 C.3       1 <0>        -0.0590
      8 C7          1.4635   -0.3335    3.0688 C.3       1 <0>         0.1320
      9 N2          1.4734    0.1405    4.4550 N.pl3     1 <0>        -0.6930
     10 C8          2.6593    0.2962    5.1152 C.cat     1 <0>         0.4930
     11 N3          2.6686    0.7393    6.4112 N.pl3     1 <0>        -0.6284
     12 C9          3.8603    0.7736    7.1253 C.ar      1 <0>         0.3772
     13 C10         3.8411    1.1088    8.4769 C.ar      1 <0>        -0.2013
     14 C11         5.0170    1.1412    9.1781 C.ar      1 <0>        -0.0019
     15 C12         6.2075    0.8328    8.5026 C.ar      1 <0>        -0.1100
     16 C13         6.1516    0.5055    7.1467 C.ar      1 <0>         0.1799
     17 N4          4.9980    0.4814    6.5118 N.ar      1 <0>        -0.4206
     18 C14         7.4615    0.8539    9.1938 C.1       1 <0>         0.2568
     19 N5          8.4562    0.8707    9.7421 N.1       1 <0>        -0.4123
     20 S1          4.0890   -0.0519    4.3468 S.3       1 <0>        -0.4339
     21 H1          0.9469    1.7353    0.0008 H         1 <0>         0.0746
     22 H2         -0.6083    1.6869   -0.8636 H         1 <0>         0.0847
     23 H3         -0.5793    1.6997    0.9161 H         1 <0>         0.0802
     24 H4         -0.0415   -0.5874   -2.0991 H         1 <0>         0.1626
     25 H5          0.0358   -3.0802   -1.2935 H         1 <0>         0.1371
     26 H6          0.0652   -3.0612    1.3936 H         1 <0>         0.1359
     27 H7         -0.4408    0.5678    2.6192 H         1 <0>         0.0735
     28 H8         -0.5407   -1.1135    3.1949 H         1 <0>         0.0912
     29 H9          1.9241   -1.3201    3.0189 H         1 <0>         0.0934
     30 H10         2.0239    0.3612    2.4432 H         1 <0>         0.0846
     31 H11         1.8434    1.0293    6.8305 H         1 <0>         0.4098
     32 H12         2.9075    1.3414    8.9675 H         1 <0>         0.1430
     33 H13         5.0278    1.3986   10.2269 H         1 <0>         0.1478
     34 H14         7.0609    0.2661    6.6153 H         1 <0>         0.1708
     35 H15         0.6380    0.3439    4.9040 H         1 <0>         0.3943
@<TRIPOS>BOND
     1    1    2 1
     2    1   21 1
     3    1   22 1
     4    1   23 1
     5    2    6 1
     6    2    3 1
     7    3    4 2
     8    3   24 1
     9    4    5 1
    10    4   25 1
    11    5    6 2
    12    5   26 1
    13    6    7 1
    14    7    8 1
    15    7   27 1
    16    7   28 1
    17    8    9 1
    18    8   29 1
    19    8   30 1
    20    9   10 2
    21    9   35 1
    22   10   11 1
    23   10   20 1
    24   11   12 1
    25   11   31 1
    26   12   17 ar
    27   12   13 ar
    28   13   14 ar
    29   13   32 1
    30   14   15 ar
    31   14   33 1
    32   15   16 ar
    33   15   18 1
    34   16   17 ar
    35   16   34 1
    36   18   19 3
@<TRIPOS>MOLECULE
CHEMBL104349
   40    42     0     0     0
SMALL
USER_CHARGES

@<TRIPOS>ATOM
      1 C1          0.4324    1.3462    0.1265 C.ar      1 <0>        -0.0734
      2 C2          0.2546    2.1032   -1.0217 C.ar      1 <0>        -0.1735
      3 C3         -0.0774    1.4674   -2.2028 C.ar      1 <0>         0.1059
      4 N1         -0.2253    0.1575   -2.2453 N.ar      1 <0>        -0.4799
      5 C4         -0.0641   -0.5936   -1.1737 C.ar      1 <0>         0.1285
      6 C5          0.2689   -0.0279    0.0427 C.ar      1 <0>        -0.1518
      7 C6         -0.2453   -2.0862   -1.2763 C.3       1 <0>         0.0934
      8 O1         -0.0209   -2.6823    0.0029 O.3       1 <0>        -0.3432
      9 C7         -0.2648   -4.0898    0.0391 C.3       1 <0>         0.2987
     10 C8         -1.6257   -4.3647   -0.4498 C.1       1 <0>        -0.2267
     11 C9         -2.7111   -4.5840   -0.8398 C.1       1 <0>        -0.0576
     12 C10        -4.0721   -4.8589   -1.3287 C.3       1 <0>        -0.0607
     13 C11        -5.0980   -5.3676   -0.3140 C.3       1 <0>        -0.1609
     14 C12        -4.5273   -6.3191   -1.3676 C.3       1 <0>        -0.1581
     15 C13        -0.1299   -4.5868    1.4554 C.2       1 <0>        -0.2424
     16 C14         0.3791   -3.7741    2.4254 C.2       1 <0>         0.0453
     17 C15         0.4940   -4.2595    3.7356 C.2       1 <0>        -0.2418
     18 C16         0.1017   -5.5221    4.0252 C.2       1 <0>         0.1563
     19 N2         -0.4043   -6.3298    3.0583 N.am      1 <0>        -0.6057
     20 C17        -0.5326   -5.8905    1.7918 C.2       1 <0>         0.5268
     21 O2         -0.9944   -6.6266    0.9346 O.2       1 <0>        -0.5173
     22 C18         0.7517   -4.8066   -0.8519 C.3       1 <0>         0.4340
     23 F1          2.0464   -4.4323   -0.4767 F         1 <0>        -0.1708
     24 F2          0.6057   -6.1903   -0.7061 F         1 <0>        -0.1529
     25 F3          0.5325   -4.4527   -2.1875 F         1 <0>        -0.1763
     26 H1          0.6965    1.8154    1.0627 H         1 <0>         0.1375
     27 H2          0.3736    3.1762   -0.9930 H         1 <0>         0.1377
     28 H3         -0.2177    2.0498   -3.1014 H         1 <0>         0.1606
     29 H4          0.4000   -0.6485    0.9168 H         1 <0>         0.1424
     30 H5         -1.2601   -2.3071   -1.6071 H         1 <0>         0.0882
     31 H6          0.4673   -2.4902   -1.9954 H         1 <0>         0.0940
     32 H7         -4.4299   -4.1990   -2.1190 H         1 <0>         0.1347
     33 H8         -4.7651   -5.4988    0.7156 H         1 <0>         0.0983
     34 H9         -6.1310   -5.0423   -0.4365 H         1 <0>         0.1085
     35 H10        -5.1849   -6.6197   -2.1832 H         1 <0>         0.1079
     36 H11        -3.8190   -7.0762   -1.0311 H         1 <0>         0.0971
     37 H12         0.6904   -2.7678    2.1867 H         1 <0>         0.1488
     38 H13         0.8956   -3.6266    4.5131 H         1 <0>         0.1551
     39 H14         0.1924   -5.8911    5.0361 H         1 <0>         0.1719
     40 H15        -0.6800   -7.2322    3.2831 H         1 <0>         0.4215
@<TRIPOS>BOND
     1    1    6 ar
     2    1    2 ar
     3    1   26 1
     4    2    3 ar
     5    2   27 1
     6    3    4 ar
     7    3   28 1
     8    4    5 ar
     9    5    6 ar
    10    5    7 1
    11    6   29 1
    12    7    8 1
    13    7   30 1
    14    7   31 1
    15    8    9 1
    16    9   10 1
    17    9   22 1
    18    9   15 1
    19   10   11 3
    20   11   12 1
    21   12   14 1
    22   12   13 1
    23   12   32 1
    24   13   14 1
    25   13   33 1
    26   13   34 1
    27   14   35 1
    28   14   36 1
    29   15   16 2
    30   15   20 1
    31   16   17 1
    32   16   37 1
    33   17   18 2
    34   17   38 1
    35   18   19 1
    36   18   39 1
    37   19   20 am
    38   19   40 1
    39   20   21 2
    40   22   23 1
    41   22   24 1
    42   22   25 1
@<TRIPOS>MOLECULE
CHEMBL104349__1
   40    42     0     0     0
SMALL
USER_CHARGES

@<TRIPOS>ATOM
      1 C1         -1.4419    1.1102   -0.9599 C.ar      1 <0>        -0.0735
      2 C2         -2.2227    1.8221   -0.0619 C.ar      1 <0>        -0.1736
      3 C3         -2.6300    1.2107    1.1085 C.ar      1 <0>         0.1059
      4 N1         -2.2840   -0.0337    1.3754 N.ar      1 <0>        -0.4800
      5 C4         -1.5427   -0.7405    0.5450 C.ar      1 <0>         0.1286
      6 C5         -1.0987   -0.1956   -0.6452 C.ar      1 <0>        -0.1518
      7 C6         -1.1749   -2.1587    0.8979 C.3       1 <0>         0.0928
      8 O1         -0.3743   -2.7169   -0.1459 O.3       1 <0>        -0.3434
      9 C7         -0.0681   -4.1011    0.0336 C.3       1 <0>         0.2987
     10 C8         -1.3157   -4.8593    0.2215 C.1       1 <0>        -0.2270
     11 C9         -2.3108   -5.4640    0.3715 C.1       1 <0>        -0.0581
     12 C10        -3.5584   -6.2222    0.5594 C.3       1 <0>        -0.0622
     13 C11        -3.8174   -6.8249    1.9417 C.3       1 <0>        -0.1563
     14 C12        -3.4420   -7.7333    0.7692 C.3       1 <0>        -0.1609
     15 C13         0.6550   -4.6176   -1.1836 C.2       1 <0>        -0.2422
     16 C14         1.0805   -3.7544   -2.1503 C.2       1 <0>         0.0454
     17 C15         1.7514   -4.2594   -3.2729 C.2       1 <0>        -0.2415
     18 C16         1.9699   -5.5903   -3.3875 C.2       1 <0>         0.1560
     19 N2          1.5452   -6.4479   -2.4245 N.am      1 <0>        -0.6056
     20 C17         0.9032   -5.9929   -1.3317 C.2       1 <0>         0.5261
     21 O2          0.5323   -6.7758   -0.4719 O.2       1 <0>        -0.5171
     22 C18         0.8224   -4.2708    1.2661 C.3       1 <0>         0.4335
     23 F1          0.1111   -3.8951    2.4107 F         1 <0>        -0.1767
     24 F2          1.2132   -5.6095    1.3783 F         1 <0>        -0.1513
     25 F3          1.9573   -3.4631    1.1362 F         1 <0>        -0.1711
     26 H1         -1.1127    1.5608   -1.8845 H         1 <0>         0.1375
     27 H2         -2.5087    2.8416   -0.2744 H         1 <0>         0.1377
     28 H3         -3.2383    1.7583    1.8131 H         1 <0>         0.1605
     29 H4         -0.4921   -0.7797   -1.3214 H         1 <0>         0.1423
     30 H5         -0.6120   -2.1665    1.8313 H         1 <0>         0.0949
     31 H6         -2.0824   -2.7508    1.0159 H         1 <0>         0.0883
     32 H7         -4.4195   -5.8566    0.0001 H         1 <0>         0.1343
     33 H8         -3.0639   -6.6600    2.7118 H         1 <0>         0.0984
     34 H9         -4.8491   -6.8557    2.2920 H         1 <0>         0.1079
     35 H10        -4.2268   -8.3617    0.3481 H         1 <0>         0.1082
     36 H11        -2.4416   -8.1660    0.7679 H         1 <0>         0.0978
     37 H12         0.9023   -2.6938   -2.0521 H         1 <0>         0.1488
     38 H13         2.0934   -3.5871   -4.0459 H         1 <0>         0.1551
     39 H14         2.4872   -5.9741   -4.2544 H         1 <0>         0.1719
     40 H15         1.7096   -7.3988   -2.5229 H         1 <0>         0.4214
@<TRIPOS>BOND
     1    1    6 ar
     2    1    2 ar
     3    1   26 1
     4    2    3 ar
     5    2   27 1
     6    3    4 ar
     7    3   28 1
     8    4    5 ar
     9    5    6 ar
    10    5    7 1
    11    6   29 1
    12    7    8 1
    13    7   30 1
    14    7   31 1
    15    8    9 1
    16    9   10 1
    17    9   22 1
    18    9   15 1
    19   10   11 3
    20   11   12 1
    21   12   14 1
    22   12   13 1
    23   12   32 1
    24   13   14 1
    25   13   33 1
    26   13   34 1
    27   14   35 1
    28   14   36 1
    29   15   16 2
    30   15   20 1
    31   16   17 1
    32   16   37 1
    33   17   18 2
    34   17   38 1
    35   18   19 1
    36   18   39 1
    37   19   20 am
    38   19   40 1
    39   20   21 2
    40   22   23 1
    41   22   24 1
    42   22   25 1
@<TRIPOS>MOLECULE
CHEMBL105400
   47    49     0     0     0
SMALL
USER_CHARGES

@<TRIPOS>ATOM
      1 C1         -0.8695    1.4975   -0.9989 C.3       1 <0>        -0.1525
      2 C2         -0.6937   -0.0136   -0.8358 C.3       1 <0>        -0.0678
      3 C3         -2.0196   -0.6388   -0.4864 C.2       1 <0>        -0.2056
      4 C4         -2.4482   -0.6750    0.8480 C.2       1 <0>         0.0563
      5 C5         -3.6512   -1.2442    1.1467 C.2       1 <0>        -0.2467
      6 C6         -4.4340   -1.7817    0.1107 C.2       1 <0>         0.5301
      7 N1         -3.9948   -1.7317   -1.1613 N.am      1 <0>        -0.6019
      8 C7         -2.8000   -1.1610   -1.4611 C.2       1 <0>         0.1843
      9 C8         -2.3352   -1.1134   -2.8939 C.3       1 <0>        -0.1345
     10 O1         -5.5124   -2.2944    0.3640 O.2       1 <0>        -0.5203
     11 C9         -4.1356   -1.2967    2.5727 C.3       1 <0>         0.2959
     12 C10        -4.5637   -2.6676    2.8954 C.1       1 <0>        -0.2195
     13 C11        -4.9051   -3.7610    3.1528 C.1       1 <0>        -0.0668
     14 C12        -5.3332   -5.1319    3.4755 C.3       1 <0>        -0.0601
     15 C13        -6.8275   -5.3708    3.7008 C.3       1 <0>        -0.1574
     16 C14        -5.8617   -5.3930    4.8873 C.3       1 <0>        -0.1621
     17 C15        -5.3167   -0.3395    2.7457 C.3       1 <0>         0.4338
     18 F1         -6.2958   -0.6295    1.7895 F         1 <0>        -0.1541
     19 F2         -5.8567   -0.4921    4.0272 F         1 <0>        -0.1792
     20 F3         -4.8774    0.9782    2.5787 F         1 <0>        -0.1714
     21 O2         -3.0762   -0.9095    3.4502 O.3       1 <0>        -0.3408
     22 C16        -3.3919   -1.0441    4.8373 C.3       1 <0>         0.0710
     23 C17        -2.1576   -0.7075    5.6763 C.3       1 <0>        -0.1542
     24 C18        -1.5589   -1.8254    6.5323 C.3       1 <0>        -0.1749
     25 C19        -2.3233   -0.6788    7.1971 C.3       1 <0>        -0.1691
     26 H1          0.0895    1.9497   -1.2516 H         1 <0>         0.0610
     27 H2         -1.5861    1.6960   -1.7959 H         1 <0>         0.0548
     28 H3         -1.2373    1.9233   -0.0653 H         1 <0>         0.0582
     29 H4         -0.3259   -0.4394   -1.7694 H         1 <0>         0.0767
     30 H5          0.0229   -0.2120   -0.0388 H         1 <0>         0.0776
     31 H6         -1.8326   -0.2570    1.6307 H         1 <0>         0.1502
     32 H7         -1.7626   -2.0128   -3.1201 H         1 <0>         0.0950
     33 H8         -3.2002   -1.0575   -3.5548 H         1 <0>         0.0811
     34 H9         -1.7067   -0.2354   -3.0430 H         1 <0>         0.1003
     35 H10        -4.5397   -2.1048   -1.8717 H         1 <0>         0.4187
     36 H11        -4.7626   -5.9276    2.9965 H         1 <0>         0.1314
     37 H12        -7.4936   -4.5128    3.6102 H         1 <0>         0.1003
     38 H13        -7.2403   -6.3237    3.3700 H         1 <0>         0.1077
     39 H14        -5.6392   -6.3607    5.3370 H         1 <0>         0.1077
     40 H15        -5.8925   -4.5497    5.5772 H         1 <0>         0.0983
     41 H16        -4.2024   -0.3617    5.0934 H         1 <0>         0.0736
     42 H17        -3.7017   -2.0690    5.0417 H         1 <0>         0.0653
     43 H18        -1.4683    0.0104    5.2316 H         1 <0>         0.1173
     44 H19        -2.0444   -2.8007    6.4978 H         1 <0>         0.0954
     45 H20        -0.4755   -1.8433    6.6508 H         1 <0>         0.0985
     46 H21        -1.7429    0.0576    7.7528 H         1 <0>         0.1018
     47 H22        -3.3118   -0.8998    7.5998 H         1 <0>         0.0965
@<TRIPOS>BOND
     1    1    2 1
     2    1   26 1
     3    1   27 1
     4    1   28 1
     5    2   29 1
     6    2   30 1
     7    2    3 1
     8    3    8 2
     9    3    4 1
    10    4   31 1
    11    4    5 2
    12    5    6 1
    13    5   11 1
    14    6   10 2
    15    6    7 am
    16    7   35 1
    17    7    8 1
    18    8    9 1
    19    9   32 1
    20    9   33 1
    21    9   34 1
    22   11   12 1
    23   11   17 1
    24   11   21 1
    25   12   13 3
    26   13   14 1
    27   14   16 1
    28   14   15 1
    29   14   36 1
    30   15   16 1
    31   15   37 1
    32   15   38 1
    33   16   39 1
    34   16   40 1
    35   17   18 1
    36   17   19 1
    37   17   20 1
    38   21   22 1
    39   22   23 1
    40   22   41 1
    41   22   42 1
    42   23   25 1
    43   23   24 1
    44   23   43 1
    45   24   25 1
    46   24   44 1
    47   24   45 1
    48   25   46 1
    49   25   47 1
@<TRIPOS>MOLECULE
CHEMBL105400__1
   47    49     0     0     0
SMALL
USER_CHARGES

@<TRIPOS>ATOM
      1 C1          0.4157    1.1658    0.3405 C.3       1 <0>        -0.1518
      2 C2          0.0003   -0.2557   -0.0436 C.3       1 <0>        -0.0682
      3 C3         -1.5004   -0.3759    0.0235 C.2       1 <0>        -0.2050
      4 C4         -2.1274   -0.6610    1.2446 C.2       1 <0>         0.0560
      5 C5         -3.4867   -0.7659    1.2877 C.2       1 <0>        -0.2463
      6 C6         -4.2283   -0.5859    0.1076 C.2       1 <0>         0.5298
      7 N1         -3.5968   -0.3130   -1.0500 N.am      1 <0>        -0.6018
      8 C7         -2.2444   -0.2031   -1.0939 C.2       1 <0>         0.1838
      9 C8         -1.5638    0.1088   -2.4018 C.3       1 <0>        -0.1345
     10 O1         -5.4452   -0.6774    0.1319 O.2       1 <0>        -0.5210
     11 C9         -4.1859   -1.0721    2.5871 C.3       1 <0>         0.2959
     12 C10        -5.2586   -0.0891    2.8106 C.1       1 <0>        -0.2207
     13 C11        -6.1142    0.6948    2.9888 C.1       1 <0>        -0.0665
     14 C12        -7.1868    1.6778    3.2122 C.3       1 <0>        -0.0623
     15 C13        -7.0045    2.6739    4.3591 C.3       1 <0>        -0.1573
     16 C14        -8.0199    1.5366    4.4878 C.3       1 <0>        -0.1598
     17 C15        -4.7872   -2.4776    2.5239 C.3       1 <0>         0.4335
     18 F1         -3.7586   -3.4208    2.4250 F         1 <0>        -0.1717
     19 F2         -5.5314   -2.7190    3.6836 F         1 <0>        -0.1792
     20 F3         -5.6212   -2.5781    1.4052 F         1 <0>        -0.1531
     21 O2         -3.2461   -1.0039    3.6614 O.3       1 <0>        -0.3409
     22 C16        -3.8317   -1.1524    4.9563 C.3       1 <0>         0.0705
     23 C17        -2.7619   -0.9337    6.0280 C.3       1 <0>        -0.1542
     24 C18        -2.4181   -2.1169    6.9350 C.3       1 <0>        -0.1748
     25 C19        -3.2153   -0.9345    7.4893 C.3       1 <0>        -0.1699
     26 H1          1.5012    1.2528    0.2920 H         1 <0>         0.0610
     27 H2         -0.0370    1.8762   -0.3513 H         1 <0>         0.0542
     28 H3          0.0790    1.3813    1.3546 H         1 <0>         0.0574
     29 H4          0.3370   -0.4711   -1.0576 H         1 <0>         0.0770
     30 H5          0.4530   -0.9660    0.6482 H         1 <0>         0.0783
     31 H6         -1.5407   -0.7964    2.1411 H         1 <0>         0.1505
     32 H7         -1.3286   -0.8210   -2.9198 H         1 <0>         0.0956
     33 H8         -2.2269    0.7123   -3.0215 H         1 <0>         0.0808
     34 H9         -0.6435    0.6606   -2.2099 H         1 <0>         0.1001
     35 H10        -4.1144   -0.1902   -1.8612 H         1 <0>         0.4186
     36 H11        -7.6958    2.0302    2.3151 H         1 <0>         0.1321
     37 H12        -6.0903    2.6014    4.9482 H         1 <0>         0.1029
     38 H13        -7.3935    3.6821    4.2166 H         1 <0>         0.1071
     39 H14        -9.0768    1.7966    4.4300 H         1 <0>         0.1072
     40 H15        -7.7736    0.7159    5.1615 H         1 <0>         0.0966
     41 H16        -4.6272   -0.4179    5.0818 H         1 <0>         0.0678
     42 H17        -4.2451   -2.1562    5.0552 H         1 <0>         0.0723
     43 H18        -1.9520   -0.2581    5.7528 H         1 <0>         0.1163
     44 H19        -2.9541   -3.0513    6.7682 H         1 <0>         0.0967
     45 H20        -1.3818   -2.2202    7.2565 H         1 <0>         0.0992
     46 H21        -2.7033   -0.2598    8.1755 H         1 <0>         0.1012
     47 H22        -4.2757   -1.0909    7.6872 H         1 <0>         0.0965
@<TRIPOS>BOND
     1    1    2 1
     2    1   26 1
     3    1   27 1
     4    1   28 1
     5    2   29 1
     6    2   30 1
     7    2    3 1
     8    3    8 2
     9    3    4 1
    10    4   31 1
    11    4    5 2
    12    5    6 1
    13    5   11 1
    14    6   10 2
    15    6    7 am
    16    7   35 1
    17    7    8 1
    18    8    9 1
    19    9   32 1
    20    9   33 1
    21    9   34 1
    22   11   12 1
    23   11   17 1
    24   11   21 1
    25   12   13 3
    26   13   14 1
    27   14   16 1
    28   14   15 1
    29   14   36 1
    30   15   16 1
    31   15   37 1
    32   15   38 1
    33   16   39 1
    34   16   40 1
    35   17   18 1
    36   17   19 1
    37   17   20 1
    38   21   22 1
    39   22   23 1
    40   22   41 1
    41   22   42 1
    42   23   25 1
    43   23   24 1
    44   23   43 1
    45   24   25 1
    46   24   44 1
    47   24   45 1
    48   25   46 1
    49   25   47 1
@<TRIPOS>MOLECULE
CHEMBL212448
   63    65     0     0     0
SMALL
USER_CHARGES

@<TRIPOS>ATOM
      1 C1         -0.0184    1.5028    0.0103 C.3       1 <0>        -0.1191
      2 C2          0.0021   -0.0041    0.0020 C.ar      1 <0>        -0.0362
      3 C3          0.0057   -0.6861   -1.1964 C.ar      1 <0>        -0.0947
      4 C4          0.0241   -2.0811   -1.2096 C.ar      1 <0>        -0.0135
      5 C5          0.0394   -2.7873   -0.0085 C.ar      1 <0>        -0.0972
      6 C6          0.0361   -2.0993    1.1917 C.ar      1 <0>         0.0781
      7 C7          0.0229   -0.7032    1.1999 C.ar      1 <0>         0.0334
      8 O1          0.0306   -0.3091    2.4972 O.3       1 <0>        -0.2331
      9 C8          0.0533   -1.3934    3.2879 C.2       1 <0>         0.6345
     10 O2          0.0649   -1.3753    4.5037 O.2       1 <0>        -0.4839
     11 N1          0.0485   -2.5053    2.5264 N.am      1 <0>        -0.5488
     12 C9          0.0694   -3.8876    3.0113 C.3       1 <0>         0.0983
     13 C10         0.0270   -2.8112   -2.5002 C.2       1 <0>        -0.0614
     14 C11         1.0857   -3.5532   -2.8470 C.2       1 <0>        -0.1008
     15 C12         2.2747   -3.6464   -1.9258 C.3       1 <0>        -0.1042
     16 C13         2.5717   -5.1166   -1.6237 C.3       1 <0>        -0.1042
     17 C14         3.7789   -5.2113   -0.6885 C.3       1 <0>        -0.1148
     18 C15         4.0714   -6.6594   -0.3909 C.2       1 <0>         0.4571
     19 O3          3.3848   -7.5267   -0.8769 O.2       1 <0>        -0.5047
     20 O4          5.0947   -6.9857    0.4142 O.3       1 <0>        -0.3561
     21 C16         5.3142   -8.3774    0.6527 C.3       1 <0>         0.0326
     22 C17        -1.1430   -2.7194   -3.4066 C.ar      1 <0>        -0.0594
     23 C18        -1.0088   -2.1193   -4.6608 C.ar      1 <0>        -0.0571
     24 C19        -2.0919   -2.0306   -5.5080 C.ar      1 <0>        -0.1124
     25 C20        -3.3251   -2.5369   -5.1211 C.ar      1 <0>         0.1633
     26 C21        -3.4705   -3.1415   -3.8637 C.ar      1 <0>        -0.1437
     27 C22        -2.3708   -3.2356   -3.0099 C.ar      1 <0>        -0.0375
     28 C23        -4.7784   -3.6802   -3.4483 C.2       1 <0>         0.5040
     29 O5         -5.7332   -3.6010   -4.1955 O.2       1 <0>        -0.4837
     30 O6         -4.9150   -4.2604   -2.2398 O.3       1 <0>        -0.3520
     31 C24        -6.2105   -4.7605   -1.9029 C.3       1 <0>         0.0355
     32 O7         -4.3886   -2.4467   -5.9578 O.3       1 <0>        -0.3208
     33 C25        -4.5937   -3.5311   -6.8655 C.3       1 <0>         0.0485
     34 C26        -1.9372   -1.3814   -6.8592 C.3       1 <0>        -0.1139
     35 H1          1.0042    1.8801    0.0026 H         1 <0>         0.0798
     36 H2         -0.5455    1.8639   -0.8728 H         1 <0>         0.0775
     37 H3         -0.5286    1.8543    0.9071 H         1 <0>         0.0731
     38 H4         -0.0061   -0.1389   -2.1274 H         1 <0>         0.1435
     39 H5          0.0533   -3.8672   -0.0146 H         1 <0>         0.1374
     40 H6          1.1021   -4.2168    3.1262 H         1 <0>         0.0751
     41 H7         -0.4387   -3.9426    3.9741 H         1 <0>         0.0926
     42 H8         -0.4397   -4.5318    2.2945 H         1 <0>         0.0884
     43 H9          1.0877   -4.0850   -3.7870 H         1 <0>         0.1257
     44 H10         3.1418   -3.1916   -2.4047 H         1 <0>         0.0837
     45 H11         2.0560   -3.1214   -0.9960 H         1 <0>         0.0806
     46 H12         1.7045   -5.5715   -1.1448 H         1 <0>         0.0740
     47 H13         2.7903   -5.6417   -2.5535 H         1 <0>         0.0767
     48 H14         4.6460   -4.7564   -1.1673 H         1 <0>         0.1087
     49 H15         3.5602   -4.6862    0.2414 H         1 <0>         0.1057
     50 H16         5.5135   -8.8811   -0.2931 H         1 <0>         0.0612
     51 H17         6.1689   -8.5017    1.3177 H         1 <0>         0.1029
     52 H18         4.4277   -8.8109    1.1156 H         1 <0>         0.0609
     53 H19        -0.0523   -1.7228   -4.9676 H         1 <0>         0.1381
     54 H20        -2.4745   -3.7041   -2.0423 H         1 <0>         0.1423
     55 H21        -6.1821   -5.2010   -0.9063 H         1 <0>         0.1036
     56 H22        -6.9309   -3.9426   -1.9182 H         1 <0>         0.0623
     57 H23        -6.5068   -5.5192   -2.6272 H         1 <0>         0.0614
     58 H24        -4.7410   -4.4530   -6.3029 H         1 <0>         0.0467
     59 H25        -5.4751   -3.3328   -7.4753 H         1 <0>         0.0978
     60 H26        -3.7213   -3.6347   -7.5108 H         1 <0>         0.0453
     61 H27        -1.6543   -2.1349   -7.5942 H         1 <0>         0.0724
     62 H28        -2.8821   -0.9241   -7.1529 H         1 <0>         0.0773
     63 H29        -1.1634   -0.6154   -6.8078 H         1 <0>         0.0733
@<TRIPOS>BOND
     1    1    2 1
     2    1   35 1
     3    1   36 1
     4    1   37 1
     5    2    7 ar
     6    2    3 ar
     7    3    4 ar
     8    3   38 1
     9    4    5 ar
    10    4   13 1
    11    5    6 ar
    12    5   39 1
    13    6   11 1
    14    6    7 ar
    15    7    8 1
    16    8    9 1
    17    9   10 2
    18    9   11 am
    19   11   12 1
    20   12   40 1
    21   12   41 1
    22   12   42 1
    23   13   14 2
    24   13   22 1
    25   14   15 1
    26   14   43 1
    27   15   16 1
    28   15   44 1
    29   15   45 1
    30   16   17 1
    31   16   46 1
    32   16   47 1
    33   17   18 1
    34   17   48 1
    35   17   49 1
    36   18   19 2
    37   18   20 1
    38   20   21 1
    39   21   50 1
    40   21   51 1
    41   21   52 1
    42   22   27 ar
    43   22   23 ar
    44   23   24 ar
    45   23   53 1
    46   24   25 ar
    47   24   34 1
    48   25   26 ar
    49   25   32 1
    50   26   27 ar
    51   26   28 1
    52   27   54 1
    53   28   29 2
    54   28   30 1
    55   30   31 1
    56   31   55 1
    57   31   56 1
    58   31   57 1
    59   32   33 1
    60   33   58 1
    61   33   59 1
    62   33   60 1
    63   34   61 1
    64   34   62 1
    65   34   63 1
@<TRIPOS>MOLECULE
CHEMBL108396
   58    61     0     0     0
SMALL
USER_CHARGES

@<TRIPOS>ATOM
      1 C1         -0.0187    1.5258    0.0104 C.3       1 <0>        -0.1433
      2 C2          0.0021   -0.0041    0.0020 C.3       1 <0>        -0.0129
      3 C3          0.7421   -0.5109    1.2415 C.3       1 <0>        -0.1418
      4 C4         -1.4117   -0.5257    0.0127 C.ar      1 <0>        -0.2804
      5 C5         -1.8772   -1.3269   -1.0134 C.ar      1 <0>         0.1804
      6 N1         -3.1247   -1.7691   -0.9747 N.ar      1 <0>        -0.5762
      7 C6         -3.9274   -1.4536    0.0319 C.ar      1 <0>         0.3212
      8 N2         -3.5180   -0.6880    1.0332 N.ar      1 <0>        -0.6181
      9 C7         -2.2777   -0.2159    1.0604 C.ar      1 <0>         0.4539
     10 O1         -1.8608    0.5613    2.0893 O.3       1 <0>        -0.6877
     11 S1         -5.5793   -2.0666    0.0385 S.3       1 <0>        -0.0045
     12 C8         -6.2897   -1.3972    1.5675 C.3       1 <0>        -0.1594
     13 C9         -7.7205   -1.8520    1.6978 C.2       1 <0>         0.4192
     14 O2         -8.2126   -2.5583    0.8433 O.2       1 <0>        -0.4426
     15 C10        -8.5190   -1.4401    2.8595 C.ar      1 <0>        -0.1989
     16 C11        -7.9550   -0.6200    3.8446 C.ar      1 <0>        -0.0267
     17 C12        -8.7050   -0.2379    4.9270 C.ar      1 <0>        -0.1632
     18 C13       -10.0235   -0.6637    5.0478 C.ar      1 <0>         0.1572
     19 C14       -10.5883   -1.4786    4.0725 C.ar      1 <0>        -0.2251
     20 C15        -9.8488   -1.8613    2.9830 C.ar      1 <0>        -0.0172
     21 O3        -10.7612   -0.2832    6.1209 O.3       1 <0>        -0.3131
     22 C16       -12.1082   -0.7561    6.1827 C.3       1 <0>         0.0247
     23 C17        -0.9748   -1.6924   -2.1637 C.3       1 <0>        -0.0306
     24 C18        -0.2421   -2.9692   -1.8413 C.ar      1 <0>        -0.0443
     25 C19         1.0045   -2.9238   -1.2963 C.ar      1 <0>        -0.1201
     26 C20         1.6973   -4.0936   -0.9915 C.ar      1 <0>        -0.1094
     27 C21         1.1479   -5.3159   -1.2303 C.ar      1 <0>        -0.1211
     28 C22        -0.1371   -5.4028   -1.7920 C.ar      1 <0>        -0.0503
     29 C23        -0.8444   -4.2127   -2.0962 C.ar      1 <0>        -0.0435
     30 C24        -2.1321   -4.2998   -2.6527 C.ar      1 <0>        -0.0759
     31 C25        -2.6836   -5.5218   -2.8858 C.ar      1 <0>        -0.1306
     32 C26        -1.9907   -6.6921   -2.5805 C.ar      1 <0>        -0.1129
     33 C27        -0.7369   -6.6467   -2.0533 C.ar      1 <0>        -0.1215
     34 H1          1.0039    1.9031    0.0027 H         1 <0>         0.0366
     35 H2         -0.5459    1.8868   -0.8726 H         1 <0>         0.0364
     36 H3         -0.5289    1.8773    0.9072 H         1 <0>         0.0791
     37 H4          0.5123   -0.3556   -0.8948 H         1 <0>         0.0547
     38 H5          1.7647   -0.1336    1.2338 H         1 <0>         0.0358
     39 H6          0.2319   -0.1594    2.1383 H         1 <0>         0.0783
     40 H7          0.7568   -1.6008    1.2356 H         1 <0>         0.0387
     41 H8         -5.7154   -1.7551    2.4221 H         1 <0>         0.1236
     42 H9         -6.2559   -0.3082    1.5375 H         1 <0>         0.1239
     43 H10        -6.9311   -0.2894    3.7521 H         1 <0>         0.1464
     44 H11        -8.2711    0.3946    5.6873 H         1 <0>         0.1390
     45 H12       -11.6123   -1.8072    4.1713 H         1 <0>         0.1335
     46 H13       -10.2898   -2.4902    2.2237 H         1 <0>         0.1376
     47 H14       -12.5843   -0.3795    7.0881 H         1 <0>         0.1013
     48 H15       -12.6576   -0.4034    5.3098 H         1 <0>         0.0580
     49 H16       -12.1104   -1.8460    6.1975 H         1 <0>         0.0581
     50 H17        -1.5729   -1.8341   -3.0639 H         1 <0>         0.0853
     51 H18        -0.2540   -0.8916   -2.3287 H         1 <0>         0.0878
     52 H19         1.4635   -1.9666   -1.0976 H         1 <0>         0.1251
     53 H20         2.6852   -4.0296   -0.5597 H         1 <0>         0.1187
     54 H21         1.6969   -6.2143   -0.9896 H         1 <0>         0.1204
     55 H22        -2.6812   -3.4015   -2.8936 H         1 <0>         0.1410
     56 H23        -3.6733   -5.5859   -3.3134 H         1 <0>         0.1195
     57 H24        -2.4516   -7.6492   -2.7752 H         1 <0>         0.1163
     58 H25        -0.2116   -7.5618   -1.8226 H         1 <0>         0.1198
@<TRIPOS>BOND
     1    1    2 1
     2    1   34 1
     3    1   35 1
     4    1   36 1
     5    2    3 1
     6    2    4 1
     7    2   37 1
     8    3   38 1
     9    3   39 1
    10    3   40 1
    11    4    9 ar
    12    4    5 ar
    13    5    6 ar
    14    5   23 1
    15    6    7 ar
    16    7    8 ar
    17    7   11 1
    18    8    9 ar
    19    9   10 1
    20   11   12 1
    21   12   13 1
    22   12   41 1
    23   12   42 1
    24   13   14 2
    25   13   15 1
    26   15   20 ar
    27   15   16 ar
    28   16   17 ar
    29   16   43 1
    30   17   18 ar
    31   17   44 1
    32   18   19 ar
    33   18   21 1
    34   19   20 ar
    35   19   45 1
    36   20   46 1
    37   21   22 1
    38   22   47 1
    39   22   48 1
    40   22   49 1
    41   23   24 1
    42   23   50 1
    43   23   51 1
    44   24   29 ar
    45   24   25 ar
    46   25   26 ar
    47   25   52 1
    48   26   27 ar
    49   26   53 1
    50   27   28 ar
    51   27   54 1
    52   28   33 ar
    53   28   29 ar
    54   29   30 ar
    55   30   31 ar
    56   30   55 1
    57   31   32 ar
    58   31   56 1
    59   32   33 ar
    60   32   57 1
    61   33   58 1
@<TRIPOS>MOLECULE
CHEMBL108396__1
   59    62     0     0     0
SMALL
USER_CHARGES

@<TRIPOS>ATOM
      1 C1          0.2616    1.1673    0.3488 C.3       1 <0>        -0.1493
      2 C2          0.1007   -0.3409    0.1480 C.3       1 <0>        -0.0296
      3 C3          0.7468   -1.0832    1.3196 C.3       1 <0>        -0.1514
      4 C4         -1.3649   -0.6854    0.0820 C.2       1 <0>        -0.2398
      5 C5         -1.8989   -1.2311   -1.0496 C.2       1 <0>         0.1940
      6 N1         -3.1939   -1.5325   -1.0988 N.2       1 <0>        -0.5352
      7 C6         -3.9886   -1.3154   -0.0685 C.2       1 <0>         0.3566
      8 N2         -3.5117   -0.7730    1.0861 N.am      1 <0>        -0.6144
      9 H1         -4.1090   -0.6195    1.8348 H         1 <0>         0.4208
     10 C7         -2.2033   -0.4554    1.1869 C.2       1 <0>         0.5362
     11 O1         -1.7579    0.0262    2.2156 O.2       1 <0>        -0.5220
     12 S1         -5.6960   -1.7337   -0.1884 S.3       1 <0>         0.0513
     13 C8         -5.8664   -2.4064   -1.8645 C.3       1 <0>        -0.1646
     14 C9         -7.2992   -2.8089   -2.1009 C.2       1 <0>         0.4207
     15 O2         -8.1243   -2.6570   -1.2250 O.2       1 <0>        -0.4382
     16 C10        -7.6965   -3.3852   -3.3920 C.ar      1 <0>        -0.2080
     17 C11        -6.7447   -3.5671   -4.4029 C.ar      1 <0>        -0.0309
     18 C12        -7.1208   -4.1060   -5.6064 C.ar      1 <0>        -0.1634
     19 C13        -8.4450   -4.4714   -5.8241 C.ar      1 <0>         0.1693
     20 C14        -9.3943   -4.2924   -4.8235 C.ar      1 <0>        -0.2225
     21 C15        -9.0274   -3.7601   -3.6143 C.ar      1 <0>        -0.0097
     22 O3         -8.8120   -5.0038   -7.0167 O.3       1 <0>        -0.3096
     23 C16       -10.1877   -5.3570   -7.1736 C.3       1 <0>         0.0223
     24 C17        -1.0200   -1.4922   -2.2457 C.3       1 <0>        -0.0381
     25 C18        -0.4670   -2.8918   -2.1667 C.ar      1 <0>        -0.0688
     26 C19         0.7597   -3.1129   -1.6196 C.ar      1 <0>        -0.1073
     27 C20         1.2875   -4.3998   -1.5380 C.ar      1 <0>        -0.1135
     28 C21         0.5919   -5.4734   -2.0035 C.ar      1 <0>        -0.1049
     29 C22        -0.6777   -5.2845   -2.5749 C.ar      1 <0>        -0.0504
     30 C23        -1.2173   -3.9760   -2.6522 C.ar      1 <0>        -0.0402
     31 C24        -2.4898   -3.7878   -3.2186 C.ar      1 <0>        -0.0986
     32 C25        -3.1876   -4.8619   -3.6784 C.ar      1 <0>        -0.1230
     33 C26        -2.6598   -6.1493   -3.5965 C.ar      1 <0>        -0.1140
     34 C27        -1.4254   -6.3682   -3.0667 C.ar      1 <0>        -0.1079
     35 H2          1.3216    1.4165    0.3966 H         1 <0>         0.0591
     36 H3         -0.1987    1.6961   -0.4858 H         1 <0>         0.0498
     37 H4         -0.2236    1.4638    1.2788 H         1 <0>         0.0683
     38 H5          0.5859   -0.6374   -0.7819 H         1 <0>         0.0833
     39 H6          0.2616   -0.7867    2.2495 H         1 <0>         0.0730
     40 H7          0.6322   -2.1577    1.1765 H         1 <0>         0.0503
     41 H8          1.8069   -0.8340    1.3673 H         1 <0>         0.0578
     42 H9         -5.5774   -1.6476   -2.5916 H         1 <0>         0.1372
     43 H10        -5.2213   -3.2783   -1.9733 H         1 <0>         0.1371
     44 H11        -5.7163   -3.2831   -4.2351 H         1 <0>         0.1398
     45 H12        -6.3875   -4.2467   -6.3867 H         1 <0>         0.1414
     46 H13       -10.4214   -4.5771   -4.9978 H         1 <0>         0.1379
     47 H14        -9.7643   -3.6260   -2.8363 H         1 <0>         0.1395
     48 H15       -10.3454   -5.7700   -8.1699 H         1 <0>         0.1058
     49 H16       -10.4595   -6.1009   -6.4247 H         1 <0>         0.0608
     50 H17       -10.8075   -4.4695   -7.0459 H         1 <0>         0.0608
     51 H18        -1.6065   -1.3842   -3.1580 H         1 <0>         0.0989
     52 H19        -0.1978   -0.7766   -2.2555 H         1 <0>         0.1025
     53 H20         1.3326   -2.2783   -1.2435 H         1 <0>         0.1264
     54 H21         2.2632   -4.5478   -1.0993 H         1 <0>         0.1248
     55 H22         1.0138   -6.4651   -1.9343 H         1 <0>         0.1267
     56 H23        -2.9118   -2.7961   -3.2881 H         1 <0>         0.1347
     57 H24        -4.1652   -4.7145   -4.1131 H         1 <0>         0.1207
     58 H25        -3.2346   -6.9845   -3.9686 H         1 <0>         0.1219
     59 H26        -1.0289   -7.3712   -3.0105 H         1 <0>         0.1256
@<TRIPOS>BOND
     1    1    2 1
     2    1   35 1
     3    1   36 1
     4    1   37 1
     5    2    3 1
     6    2    4 1
     7    2   38 1
     8    3   39 1
     9    3   40 1
    10    3   41 1
    11    4   10 1
    12    4    5 2
    13    5    6 1
    14    5   24 1
    15    6    7 2
    16    7    8 1
    17    7   12 1
    18    8    9 1
    19    8   10 am
    20   10   11 2
    21   12   13 1
    22   13   14 1
    23   13   42 1
    24   13   43 1
    25   14   15 2
    26   14   16 1
    27   16   21 ar
    28   16   17 ar
    29   17   18 ar
    30   17   44 1
    31   18   19 ar
    32   18   45 1
    33   19   20 ar
    34   19   22 1
    35   20   21 ar
    36   20   46 1
    37   21   47 1
    38   22   23 1
    39   23   48 1
    40   23   49 1
    41   23   50 1
    42   24   25 1
    43   24   51 1
    44   24   52 1
    45   25   30 ar
    46   25   26 ar
    47   26   27 ar
    48   26   53 1
    49   27   28 ar
    50   27   54 1
    51   28   29 ar
    52   28   55 1
    53   29   34 ar
    54   29   30 ar
    55   30   31 ar
    56   31   32 ar
    57   31   56 1
    58   32   33 ar
    59   32   57 1
    60   33   34 ar
    61   33   58 1
    62   34   59 1
@<TRIPOS>MOLECULE
CHEMBL108396__2
   59    62     0     0     0
SMALL
USER_CHARGES

@<TRIPOS>ATOM
      1 C1          0.2792    1.1378    0.3913 C.3       1 <0>        -0.1489
      2 C2          0.1053   -0.3641    0.1569 C.3       1 <0>        -0.0300
      3 C3          0.7467   -1.1379    1.3106 C.3       1 <0>        -0.1498
      4 C4         -1.3632   -0.6947    0.0855 C.2       1 <0>        -0.2267
      5 C5         -1.8933   -1.2233   -1.0381 C.2       1 <0>         0.1647
      6 N1         -3.2270   -1.5131   -1.0753 N.pl3     1 <0>        -0.5924
      7 C6         -4.0143   -1.2718    0.0076 C.2       1 <0>         0.3853
      8 N2         -3.5136   -0.7562    1.1128 N.2       1 <0>        -0.5888
      9 C7         -2.2096   -0.4609    1.1997 C.2       1 <0>         0.5221
     10 O1         -1.7535    0.0115    2.2298 O.2       1 <0>        -0.5000
     11 S1         -5.7326   -1.6544   -0.0684 S.3       1 <0>         0.0428
     12 C8         -6.3615   -1.1756    1.5643 C.3       1 <0>        -0.1591
     13 C9         -7.8408   -1.4545    1.6344 C.2       1 <0>         0.4228
     14 O2         -8.4144   -1.9296    0.6771 O.2       1 <0>        -0.4411
     15 C10        -8.5879   -1.1510    2.8618 C.ar      1 <0>        -0.2102
     16 C11        -7.9291   -0.5971    3.9665 C.ar      1 <0>        -0.0275
     17 C12        -8.6314   -0.3152    5.1099 C.ar      1 <0>        -0.1640
     18 C13        -9.9954   -0.5789    5.1740 C.ar      1 <0>         0.1690
     19 C14       -10.6544   -1.1294    4.0799 C.ar      1 <0>        -0.2242
     20 C15        -9.9626   -1.4092    2.9295 C.ar      1 <0>        -0.0099
     21 O3        -10.6856   -0.2986    6.3078 O.3       1 <0>        -0.3099
     22 C16       -12.0837   -0.5941    6.3062 C.3       1 <0>         0.0226
     23 C17        -1.0223   -1.4900   -2.2386 C.3       1 <0>        -0.0499
     24 C18        -0.4735   -2.8913   -2.1596 C.ar      1 <0>        -0.0842
     25 C19         0.7557   -3.1152   -1.6191 C.ar      1 <0>        -0.0942
     26 C20         1.2796   -4.4037   -1.5375 C.ar      1 <0>        -0.1149
     27 C21         0.5778   -5.4760   -1.9964 C.ar      1 <0>        -0.0974
     28 C22        -0.6945   -5.2842   -2.5609 C.ar      1 <0>        -0.0526
     29 C23        -1.2301   -3.9741   -2.6381 C.ar      1 <0>        -0.0381
     30 C24        -2.5053   -3.7831   -3.1975 C.ar      1 <0>        -0.1271
     31 C25        -3.2093   -4.8559   -3.6508 C.ar      1 <0>        -0.1006
     32 C26        -2.6853   -6.1449   -3.5689 C.ar      1 <0>        -0.1187
     33 C27        -1.4486   -6.3666   -3.0458 C.ar      1 <0>        -0.0959
     34 H1          1.3414    1.3769    0.4430 H         1 <0>         0.0592
     35 H2         -0.1777    1.6890   -0.4306 H         1 <0>         0.0487
     36 H3         -0.2022    1.4174    1.3284 H         1 <0>         0.0723
     37 H4          0.5867   -0.6438   -0.7802 H         1 <0>         0.0772
     38 H5          0.6228   -2.2079    1.1436 H         1 <0>         0.0496
     39 H6          1.8089   -0.8988    1.3623 H         1 <0>         0.0582
     40 H7          0.2653   -0.8583    2.2477 H         1 <0>         0.0753
     41 H8         -5.8466   -1.7496    2.3347 H         1 <0>         0.1385
     42 H9         -6.1843   -0.1121    1.7243 H         1 <0>         0.1388
     43 H10        -6.8698   -0.3926    3.9180 H         1 <0>         0.1431
     44 H11        -8.1243    0.1120    5.9624 H         1 <0>         0.1415
     45 H12       -11.7136   -1.3329    4.1350 H         1 <0>         0.1377
     46 H13       -10.4761   -1.8322    2.0788 H         1 <0>         0.1394
     47 H14       -12.5136   -0.3227    7.2703 H         1 <0>         0.1055
     48 H15       -12.5743   -0.0253    5.5164 H         1 <0>         0.0605
     49 H16       -12.2295   -1.6600    6.1305 H         1 <0>         0.0605
     50 H17        -1.6138   -1.3822   -3.1478 H         1 <0>         0.0968
     51 H18        -0.1978   -0.7773   -2.2549 H         1 <0>         0.1179
     52 H19         1.3335   -2.2816   -1.2482 H         1 <0>         0.1297
     53 H20         2.2574   -4.5539   -1.1041 H         1 <0>         0.1281
     54 H21         0.9969   -6.4690   -1.9273 H         1 <0>         0.1300
     55 H22        -2.9244   -2.7902   -3.2669 H         1 <0>         0.1143
     56 H23        -4.1889   -4.7063   -4.0802 H         1 <0>         0.1272
     57 H24        -3.2650   -6.9790   -3.9357 H         1 <0>         0.1267
     58 H25        -1.0551   -7.3708   -2.9895 H         1 <0>         0.1298
     59 H26        -3.6155   -1.8930   -1.8788 H         1 <0>         0.4203
@<TRIPOS>BOND
     1    1    2 1
     2    1   34 1
     3    1   35 1
     4    1   36 1
     5    2    3 1
     6    2    4 1
     7    2   37 1
     8    3   38 1
     9    3   39 1
    10    3   40 1
    11    4    9 1
    12    4    5 2
    13    5    6 1
    14    5   23 1
    15    6    7 1
    16    6   59 1
    17    7    8 2
    18    7   11 1
    19    8    9 1
    20    9   10 2
    21   11   12 1
    22   12   13 1
    23   12   41 1
    24   12   42 1
    25   13   14 2
    26   13   15 1
    27   15   20 ar
    28   15   16 ar
    29   16   17 ar
    30   16   43 1
    31   17   18 ar
    32   17   44 1
    33   18   19 ar
    34   18   21 1
    35   19   20 ar
    36   19   45 1
    37   20   46 1
    38   21   22 1
    39   22   47 1
    40   22   48 1
    41   22   49 1
    42   23   24 1
    43   23   50 1
    44   23   51 1
    45   24   29 ar
    46   24   25 ar
    47   25   26 ar
    48   25   52 1
    49   26   27 ar
    50   26   53 1
    51   27   28 ar
    52   27   54 1
    53   28   33 ar
    54   28   29 ar
    55   29   30 ar
    56   30   31 ar
    57   30   55 1
    58   31   32 ar
    59   31   56 1
    60   32   33 ar
    61   32   57 1
    62   33   58 1
@<TRIPOS>MOLECULE
CHEMBL195111
   44    46     0     0     0
SMALL
USER_CHARGES

@<TRIPOS>ATOM
      1 C1         -0.0164    1.3597    0.0095 C.2       1 <0>         0.2538
      2 N1          1.2103    1.8108    0.0002 N.2       1 <0>        -0.4143
      3 C2          2.0482    0.7650   -0.0120 C.2       1 <0>        -0.0806
      4 C3          1.2845   -0.3957   -0.0164 C.2       1 <0>        -0.0101
      5 N2          0.0021   -0.0041    0.0020 N.pl3     1 <0>        -0.4058
      6 C4         -1.1694   -0.8837    0.0123 C.3       1 <0>         0.2653
      7 H1         -0.9726   -1.7685   -0.5930 H         1 <0>         0.1259
      8 C5         -1.4970   -1.3028    1.4616 C.3       1 <0>        -0.1589
      9 C6         -2.6306   -0.3121    1.8430 C.3       1 <0>        -0.1539
     10 C7         -3.3528   -0.1533    0.4813 C.3       1 <0>         0.0707
     11 H2         -4.0462   -0.9791    0.3223 H         1 <0>         0.1040
     12 O1         -2.3070   -0.1839   -0.5055 O.3       1 <0>        -0.3316
     13 C8         -4.0976    1.1821    0.4278 C.3       1 <0>         0.1304
     14 O2         -4.8503    1.2595   -0.7844 O.3       1 <0>        -0.7594
     15 P1         -5.7579    2.5312   -1.1733 P.3       1 <0>         2.2848
     16 O3         -6.7639    2.8133   -0.0353 O.2       1 <0>        -1.1013
     17 O4         -4.8528    3.7664   -1.3785 O.3       1 <0>        -1.1135
     18 O5         -6.5602    2.2217   -2.5344 O.3       1 <0>        -1.0970
     19 P2         -7.8163    2.9067   -3.2727 P.3       1 <0>         2.3417
     20 O6         -8.8688    3.3213   -2.2203 O.2       1 <0>        -1.1136
     21 O7         -7.3404    4.1571   -4.0454 O.3       1 <0>        -1.1378
     22 O8         -8.4717    1.8567   -4.3023 O.3       1 <0>        -1.1047
     23 P3         -9.8733    1.7908   -5.0918 P.3       1 <0>         2.2185
     24 O9        -11.0264    2.2792   -4.1503 O.2       1 <0>        -1.1957
     25 O10        -9.8046    2.7140   -6.3557 O.3       1 <0>        -1.2099
     26 O11       -10.1527    0.3151   -5.5375 O.3       1 <0>        -1.2121
     27 C9          1.8855   -1.7703   -0.0453 C.3       1 <0>         0.1664
     28 N3          3.3165   -1.7320    0.2180 N.pl3     1 <0>        -0.5674
     29 C10         4.0703   -0.6906    0.2365 C.cat     1 <0>         0.5025
     30 C11         3.5192    0.6793   -0.0138 C.2       1 <0>         0.4640
     31 O12         4.2307    1.6462   -0.2040 O.2       1 <0>        -0.3578
     32 N4          5.4165   -0.8384    0.4927 N.pl3     1 <0>        -0.7668
     33 H3         -0.9062    1.9716    0.0254 H         1 <0>         0.2394
     34 H4         -1.8534   -2.3323    1.4965 H         1 <0>         0.1062
     35 H5         -0.6306   -1.1689    2.1093 H         1 <0>         0.0860
     36 H6         -3.2945   -0.7442    2.5917 H         1 <0>         0.1050
     37 H7         -2.2225    0.6392    2.1845 H         1 <0>         0.0895
     38 H8         -4.7729    1.2559    1.2802 H         1 <0>         0.0759
     39 H9         -3.3786    2.0007    0.4620 H         1 <0>         0.0529
     40 H10         1.4005   -2.3872    0.7113 H         1 <0>         0.1467
     41 H11         1.7156   -2.2130   -1.0268 H         1 <0>         0.1488
     42 H12         5.7851   -1.7205    0.6564 H         1 <0>         0.4295
     43 H13         5.9953   -0.0602    0.5093 H         1 <0>         0.4503
     44 H14         3.7470   -2.5822    0.3989 H         1 <0>         0.4346
@<TRIPOS>BOND
     1    1    5 1
     2    1    2 2
     3    1   33 1
     4    2    3 1
     5    3   30 1
     6    3    4 2
     7    4    5 1
     8    4   27 1
     9    5    6 1
    10    6    7 1
    11    6   12 1
    12    6    8 1
    13    8    9 1
    14    8   34 1
    15    8   35 1
    16    9   10 1
    17    9   36 1
    18    9   37 1
    19   10   11 1
    20   10   12 1
    21   10   13 1
    22   13   14 1
    23   13   38 1
    24   13   39 1
    25   14   15 1
    26   15   16 2
    27   15   17 1
    28   15   18 1
    29   18   19 1
    30   19   20 2
    31   19   21 1
    32   19   22 1
    33   22   23 1
    34   23   24 2
    35   23   25 1
    36   23   26 1
    37   27   28 1
    38   27   40 1
    39   27   41 1
    40   28   29 2
    41   28   44 1
    42   29   30 1
    43   29   32 1
    44   30   31 2
    45   32   42 1
    46   32   43 1
@<TRIPOS>MOLECULE
CHEMBL195111__1
   43    45     0     0     0
SMALL
USER_CHARGES

@<TRIPOS>ATOM
      1 C1         -0.0164    1.3597    0.0095 C.2       1 <0>         0.2145
      2 N1          1.2103    1.8108    0.0002 N.2       1 <0>        -0.4318
      3 C2          2.0482    0.7650   -0.0120 C.2       1 <0>        -0.0976
      4 C3          1.2845   -0.3957   -0.0164 C.2       1 <0>        -0.0014
      5 N2          0.0021   -0.0041    0.0020 N.pl3     1 <0>        -0.4260
      6 C4         -1.1694   -0.8837    0.0123 C.3       1 <0>         0.2760
      7 H1         -0.9726   -1.7685   -0.5930 H         1 <0>         0.1187
      8 C5         -1.4970   -1.3028    1.4616 C.3       1 <0>        -0.1571
      9 C6         -2.6306   -0.3121    1.8430 C.3       1 <0>        -0.1521
     10 C7         -3.3528   -0.1533    0.4813 C.3       1 <0>         0.0724
     11 H2         -4.0462   -0.9791    0.3223 H         1 <0>         0.0975
     12 O1         -2.3070   -0.1839   -0.5055 O.3       1 <0>        -0.3381
     13 C8         -4.0976    1.1821    0.4278 C.3       1 <0>         0.1325
     14 O2         -4.8503    1.2595   -0.7844 O.3       1 <0>        -0.7604
     15 P1         -5.7579    2.5312   -1.1733 P.3       1 <0>         2.2888
     16 O3         -6.7639    2.8133   -0.0353 O.2       1 <0>        -1.1051
     17 O4         -4.8528    3.7664   -1.3785 O.3       1 <0>        -1.1155
     18 O5         -6.5602    2.2217   -2.5344 O.3       1 <0>        -1.0976
     19 P2         -7.8163    2.9067   -3.2727 P.3       1 <0>         2.3450
     20 O6         -8.8688    3.3213   -2.2203 O.2       1 <0>        -1.1159
     21 O7         -7.3404    4.1571   -4.0454 O.3       1 <0>        -1.1397
     22 O8         -8.4717    1.8567   -4.3023 O.3       1 <0>        -1.1051
     23 P3         -9.8733    1.7908   -5.0918 P.3       1 <0>         2.2211
     24 O9        -11.0264    2.2792   -4.1504 O.2       1 <0>        -1.1973
     25 O10        -9.8046    2.7140   -6.3557 O.3       1 <0>        -1.2114
     26 O11       -10.1527    0.3151   -5.5375 O.3       1 <0>        -1.2132
     27 C9          1.8855   -1.7703   -0.0453 C.3       1 <0>         0.1575
     28 N3          3.3165   -1.7320    0.2180 N.2       1 <0>        -0.5809
     29 C10         4.0704   -0.6907    0.2361 C.2       1 <0>         0.3896
     30 C11         3.5192    0.6793   -0.0138 C.2       1 <0>         0.4434
     31 O12         4.2307    1.6462   -0.2040 O.2       1 <0>        -0.4332
     32 N4          5.4166   -0.8385    0.4919 N.pl3     1 <0>        -0.8309
     33 H3         -0.9062    1.9716    0.0254 H         1 <0>         0.2239
     34 H4         -1.8534   -2.3323    1.4965 H         1 <0>         0.0996
     35 H5         -0.6306   -1.1689    2.1093 H         1 <0>         0.0868
     36 H6         -3.2945   -0.7442    2.5917 H         1 <0>         0.0986
     37 H7         -2.2225    0.6392    2.1845 H         1 <0>         0.0869
     38 H8         -4.7729    1.2559    1.2802 H         1 <0>         0.0714
     39 H9         -3.3786    2.0007    0.4620 H         1 <0>         0.0530
     40 H10         1.4005   -2.3872    0.7113 H         1 <0>         0.1078
     41 H11         1.7156   -2.2130   -1.0268 H         1 <0>         0.1077
     42 H12         5.7852   -1.7206    0.6556 H         1 <0>         0.4057
     43 H13         5.9955   -0.0603    0.5082 H         1 <0>         0.4116
@<TRIPOS>BOND
     1    1    5 1
     2    1    2 2
     3    1   33 1
     4    2    3 1
     5    3   30 1
     6    3    4 2
     7    4    5 1
     8    4   27 1
     9    5    6 1
    10    6    7 1
    11    6   12 1
    12    6    8 1
    13    8    9 1
    14    8   34 1
    15    8   35 1
    16    9   10 1
    17    9   36 1
    18    9   37 1
    19   10   11 1
    20   10   12 1
    21   10   13 1
    22   13   14 1
    23   13   38 1
    24   13   39 1
    25   14   15 1
    26   15   16 2
    27   15   17 1
    28   15   18 1
    29   18   19 1
    30   19   20 2
    31   19   21 1
    32   19   22 1
    33   22   23 1
    34   23   24 2
    35   23   25 1
    36   23   26 1
    37   27   28 1
    38   27   40 1
    39   27   41 1
    40   28   29 2
    41   29   30 1
    42   29   32 1
    43   30   31 2
    44   32   42 1
    45   32   43 1
@<TRIPOS>MOLECULE
CHEMBL195111__2
   44    46     0     0     0
SMALL
USER_CHARGES

@<TRIPOS>ATOM
      1 C1         -0.0164    1.3597    0.0095 C.2       1 <0>         0.2538
      2 N1          1.2103    1.8108    0.0002 N.2       1 <0>        -0.4143
      3 C2          2.0482    0.7650   -0.0120 C.2       1 <0>        -0.0806
      4 C3          1.2845   -0.3957   -0.0164 C.2       1 <0>        -0.0101
      5 N2          0.0021   -0.0041    0.0020 N.pl3     1 <0>        -0.4058
      6 C4         -1.1694   -0.8837    0.0123 C.3       1 <0>         0.2653
      7 H1         -0.9726   -1.7685   -0.5930 H         1 <0>         0.1259
      8 C5         -1.4970   -1.3028    1.4616 C.3       1 <0>        -0.1589
      9 C6         -2.6306   -0.3121    1.8430 C.3       1 <0>        -0.1539
     10 C7         -3.3528   -0.1533    0.4813 C.3       1 <0>         0.0707
     11 H2         -4.0462   -0.9791    0.3223 H         1 <0>         0.1040
     12 O1         -2.3070   -0.1839   -0.5055 O.3       1 <0>        -0.3316
     13 C8         -4.0976    1.1821    0.4278 C.3       1 <0>         0.1304
     14 O2         -4.8503    1.2595   -0.7844 O.3       1 <0>        -0.7594
     15 P1         -5.7579    2.5312   -1.1733 P.3       1 <0>         2.2848
     16 O3         -6.7639    2.8133   -0.0353 O.2       1 <0>        -1.1013
     17 O4         -4.8528    3.7664   -1.3785 O.3       1 <0>        -1.1135
     18 O5         -6.5602    2.2217   -2.5344 O.3       1 <0>        -1.0970
     19 P2         -7.8163    2.9067   -3.2727 P.3       1 <0>         2.3417
     20 O6         -8.8688    3.3213   -2.2203 O.2       1 <0>        -1.1136
     21 O7         -7.3404    4.1571   -4.0454 O.3       1 <0>        -1.1378
     22 O8         -8.4717    1.8567   -4.3023 O.3       1 <0>        -1.1047
     23 P3         -9.8733    1.7908   -5.0918 P.3       1 <0>         2.2185
     24 O9        -11.0264    2.2792   -4.1503 O.2       1 <0>        -1.1957
     25 O10        -9.8046    2.7140   -6.3557 O.3       1 <0>        -1.2099
     26 O11       -10.1527    0.3151   -5.5375 O.3       1 <0>        -1.2121
     27 C9          1.8855   -1.7703   -0.0453 C.3       1 <0>         0.1664
     28 N3          3.3165   -1.7320    0.2180 N.pl3     1 <0>        -0.5674
     29 C10         4.0703   -0.6906    0.2365 C.cat     1 <0>         0.5025
     30 C11         3.5192    0.6793   -0.0138 C.2       1 <0>         0.4640
     31 O12         4.2307    1.6462   -0.2040 O.2       1 <0>        -0.3578
     32 N4          5.4165   -0.8384    0.4927 N.pl3     1 <0>        -0.7668
     33 H3         -0.9062    1.9716    0.0254 H         1 <0>         0.2394
     34 H4         -1.8534   -2.3323    1.4965 H         1 <0>         0.1062
     35 H5         -0.6306   -1.1689    2.1093 H         1 <0>         0.0860
     36 H6         -3.2945   -0.7442    2.5917 H         1 <0>         0.1050
     37 H7         -2.2225    0.6392    2.1845 H         1 <0>         0.0895
     38 H8         -4.7729    1.2559    1.2802 H         1 <0>         0.0759
     39 H9         -3.3786    2.0007    0.4620 H         1 <0>         0.0529
     40 H10         1.4005   -2.3872    0.7113 H         1 <0>         0.1467
     41 H11         1.7156   -2.2130   -1.0268 H         1 <0>         0.1488
     42 H12         5.7851   -1.7205    0.6564 H         1 <0>         0.4295
     43 H13         5.9953   -0.0602    0.5093 H         1 <0>         0.4503
     44 H14         3.7470   -2.5822    0.3989 H         1 <0>         0.4346
@<TRIPOS>BOND
     1    1    5 1
     2    1    2 2
     3    1   33 1
     4    2    3 1
     5    3   30 1
     6    3    4 2
     7    4    5 1
     8    4   27 1
     9    5    6 1
    10    6    7 1
    11    6   12 1
    12    6    8 1
    13    8    9 1
    14    8   34 1
    15    8   35 1
    16    9   10 1
    17    9   36 1
    18    9   37 1
    19   10   11 1
    20   10   12 1
    21   10   13 1
    22   13   14 1
    23   13   38 1
    24   13   39 1
    25   14   15 1
    26   15   16 2
    27   15   17 1
    28   15   18 1
    29   18   19 1
    30   19   20 2
    31   19   21 1
    32   19   22 1
    33   22   23 1
    34   23   24 2
    35   23   25 1
    36   23   26 1
    37   27   28 1
    38   27   40 1
    39   27   41 1
    40   28   29 2
    41   28   44 1
    42   29   30 1
    43   29   32 1
    44   30   31 2
    45   32   42 1
    46   32   43 1
@<TRIPOS>MOLECULE
CHEMBL195111__3
   43    45     0     0     0
SMALL
USER_CHARGES

@<TRIPOS>ATOM
      1 C1         -0.0164    1.3597    0.0095 C.2       1 <0>         0.2145
      2 N1          1.2103    1.8108    0.0002 N.2       1 <0>        -0.4318
      3 C2          2.0482    0.7650   -0.0120 C.2       1 <0>        -0.0976
      4 C3          1.2845   -0.3957   -0.0164 C.2       1 <0>        -0.0014
      5 N2          0.0021   -0.0041    0.0020 N.pl3     1 <0>        -0.4260
      6 C4         -1.1694   -0.8837    0.0123 C.3       1 <0>         0.2760
      7 H1         -0.9726   -1.7685   -0.5930 H         1 <0>         0.1187
      8 C5         -1.4970   -1.3028    1.4616 C.3       1 <0>        -0.1571
      9 C6         -2.6306   -0.3121    1.8430 C.3       1 <0>        -0.1521
     10 C7         -3.3528   -0.1533    0.4813 C.3       1 <0>         0.0724
     11 H2         -4.0462   -0.9791    0.3223 H         1 <0>         0.0975
     12 O1         -2.3070   -0.1839   -0.5055 O.3       1 <0>        -0.3381
     13 C8         -4.0976    1.1821    0.4278 C.3       1 <0>         0.1325
     14 O2         -4.8503    1.2595   -0.7844 O.3       1 <0>        -0.7604
     15 P1         -5.7579    2.5312   -1.1733 P.3       1 <0>         2.2888
     16 O3         -6.7639    2.8133   -0.0353 O.2       1 <0>        -1.1051
     17 O4         -4.8528    3.7664   -1.3785 O.3       1 <0>        -1.1155
     18 O5         -6.5602    2.2217   -2.5344 O.3       1 <0>        -1.0976
     19 P2         -7.8163    2.9067   -3.2727 P.3       1 <0>         2.3450
     20 O6         -8.8688    3.3213   -2.2203 O.2       1 <0>        -1.1159
     21 O7         -7.3404    4.1571   -4.0454 O.3       1 <0>        -1.1397
     22 O8         -8.4717    1.8567   -4.3023 O.3       1 <0>        -1.1051
     23 P3         -9.8733    1.7908   -5.0918 P.3       1 <0>         2.2211
     24 O9        -11.0264    2.2792   -4.1504 O.2       1 <0>        -1.1973
     25 O10        -9.8046    2.7140   -6.3557 O.3       1 <0>        -1.2114
     26 O11       -10.1527    0.3151   -5.5375 O.3       1 <0>        -1.2132
     27 C9          1.8855   -1.7703   -0.0453 C.3       1 <0>         0.1575
     28 N3          3.3165   -1.7320    0.2180 N.2       1 <0>        -0.5809
     29 C10         4.0704   -0.6907    0.2361 C.2       1 <0>         0.3896
     30 C11         3.5192    0.6793   -0.0138 C.2       1 <0>         0.4434
     31 O12         4.2307    1.6462   -0.2040 O.2       1 <0>        -0.4332
     32 N4          5.4166   -0.8385    0.4919 N.pl3     1 <0>        -0.8309
     33 H3         -0.9062    1.9716    0.0254 H         1 <0>         0.2239
     34 H4         -1.8534   -2.3323    1.4965 H         1 <0>         0.0996
     35 H5         -0.6306   -1.1689    2.1093 H         1 <0>         0.0868
     36 H6         -3.2945   -0.7442    2.5917 H         1 <0>         0.0986
     37 H7         -2.2225    0.6392    2.1845 H         1 <0>         0.0869
     38 H8         -4.7729    1.2559    1.2802 H         1 <0>         0.0714
     39 H9         -3.3786    2.0007    0.4620 H         1 <0>         0.0530
     40 H10         1.4005   -2.3872    0.7113 H         1 <0>         0.1078
     41 H11         1.7156   -2.2130   -1.0268 H         1 <0>         0.1077
     42 H12         5.7852   -1.7206    0.6556 H         1 <0>         0.4057
     43 H13         5.9955   -0.0603    0.5082 H         1 <0>         0.4116
@<TRIPOS>BOND
     1    1    5 1
     2    1    2 2
     3    1   33 1
     4    2    3 1
     5    3   30 1
     6    3    4 2
     7    4    5 1
     8    4   27 1
     9    5    6 1
    10    6    7 1
    11    6   12 1
    12    6    8 1
    13    8    9 1
    14    8   34 1
    15    8   35 1
    16    9   10 1
    17    9   36 1
    18    9   37 1
    19   10   11 1
    20   10   12 1
    21   10   13 1
    22   13   14 1
    23   13   38 1
    24   13   39 1
    25   14   15 1
    26   15   16 2
    27   15   17 1
    28   15   18 1
    29   18   19 1
    30   19   20 2
    31   19   21 1
    32   19   22 1
    33   22   23 1
    34   23   24 2
    35   23   25 1
    36   23   26 1
    37   27   28 1
    38   27   40 1
    39   27   41 1
    40   28   29 2
    41   29   30 1
    42   29   32 1
    43   30   31 2
    44   32   42 1
    45   32   43 1
@<TRIPOS>MOLECULE
CHEMBL195111__4
   44    46     0     0     0
SMALL
USER_CHARGES

@<TRIPOS>ATOM
      1 C1         -0.0164    1.3597    0.0095 C.2       1 <0>         0.2538
      2 N1          1.2103    1.8108    0.0002 N.2       1 <0>        -0.4143
      3 C2          2.0482    0.7650   -0.0120 C.2       1 <0>        -0.0806
      4 C3          1.2845   -0.3957   -0.0164 C.2       1 <0>        -0.0101
      5 N2          0.0021   -0.0041    0.0020 N.pl3     1 <0>        -0.4058
      6 C4         -1.1694   -0.8837    0.0123 C.3       1 <0>         0.2653
      7 H1         -0.9726   -1.7685   -0.5930 H         1 <0>         0.1259
      8 C5         -1.4970   -1.3028    1.4616 C.3       1 <0>        -0.1589
      9 C6         -2.6306   -0.3121    1.8430 C.3       1 <0>        -0.1539
     10 C7         -3.3528   -0.1533    0.4813 C.3       1 <0>         0.0707
     11 H2         -4.0462   -0.9791    0.3223 H         1 <0>         0.1040
     12 O1         -2.3070   -0.1839   -0.5055 O.3       1 <0>        -0.3316
     13 C8         -4.0976    1.1821    0.4278 C.3       1 <0>         0.1304
     14 O2         -4.8503    1.2595   -0.7844 O.3       1 <0>        -0.7594
     15 P1         -5.7579    2.5312   -1.1733 P.3       1 <0>         2.2848
     16 O3         -6.7639    2.8133   -0.0353 O.2       1 <0>        -1.1013
     17 O4         -4.8528    3.7664   -1.3785 O.3       1 <0>        -1.1135
     18 O5         -6.5602    2.2217   -2.5344 O.3       1 <0>        -1.0970
     19 P2         -7.8163    2.9067   -3.2727 P.3       1 <0>         2.3417
     20 O6         -8.8688    3.3213   -2.2203 O.2       1 <0>        -1.1136
     21 O7         -7.3404    4.1571   -4.0454 O.3       1 <0>        -1.1378
     22 O8         -8.4717    1.8567   -4.3023 O.3       1 <0>        -1.1047
     23 P3         -9.8733    1.7908   -5.0918 P.3       1 <0>         2.2185
     24 O9        -11.0264    2.2792   -4.1503 O.2       1 <0>        -1.1957
     25 O10        -9.8046    2.7140   -6.3557 O.3       1 <0>        -1.2099
     26 O11       -10.1527    0.3151   -5.5375 O.3       1 <0>        -1.2121
     27 C9          1.8855   -1.7703   -0.0453 C.3       1 <0>         0.1664
     28 N3          3.3165   -1.7320    0.2180 N.pl3     1 <0>        -0.5674
     29 C10         4.0703   -0.6906    0.2365 C.cat     1 <0>         0.5025
     30 C11         3.5192    0.6793   -0.0138 C.2       1 <0>         0.4640
     31 O12         4.2307    1.6462   -0.2040 O.2       1 <0>        -0.3578
     32 N4          5.4165   -0.8384    0.4927 N.pl3     1 <0>        -0.7668
     33 H3         -0.9062    1.9716    0.0254 H         1 <0>         0.2394
     34 H4         -1.8534   -2.3323    1.4965 H         1 <0>         0.1062
     35 H5         -0.6306   -1.1689    2.1093 H         1 <0>         0.0860
     36 H6         -3.2945   -0.7442    2.5917 H         1 <0>         0.1050
     37 H7         -2.2225    0.6392    2.1845 H         1 <0>         0.0895
     38 H8         -4.7729    1.2559    1.2802 H         1 <0>         0.0759
     39 H9         -3.3786    2.0007    0.4620 H         1 <0>         0.0529
     40 H10         1.4005   -2.3872    0.7113 H         1 <0>         0.1467
     41 H11         1.7156   -2.2130   -1.0268 H         1 <0>         0.1488
     42 H12         5.7851   -1.7205    0.6564 H         1 <0>         0.4295
     43 H13         5.9953   -0.0602    0.5093 H         1 <0>         0.4503
     44 H14         3.7470   -2.5822    0.3989 H         1 <0>         0.4346
@<TRIPOS>BOND
     1    1    5 1
     2    1    2 2
     3    1   33 1
     4    2    3 1
     5    3   30 1
     6    3    4 2
     7    4    5 1
     8    4   27 1
     9    5    6 1
    10    6    7 1
    11    6   12 1
    12    6    8 1
    13    8    9 1
    14    8   34 1
    15    8   35 1
    16    9   10 1
    17    9   36 1
    18    9   37 1
    19   10   11 1
    20   10   12 1
    21   10   13 1
    22   13   14 1
    23   13   38 1
    24   13   39 1
    25   14   15 1
    26   15   16 2
    27   15   17 1
    28   15   18 1
    29   18   19 1
    30   19   20 2
    31   19   21 1
    32   19   22 1
    33   22   23 1
    34   23   24 2
    35   23   25 1
    36   23   26 1
    37   27   28 1
    38   27   40 1
    39   27   41 1
    40   28   29 2
    41   28   44 1
    42   29   30 1
    43   29   32 1
    44   30   31 2
    45   32   42 1
    46   32   43 1
@<TRIPOS>MOLECULE
CHEMBL195111__5
   43    45     0     0     0
SMALL
USER_CHARGES

@<TRIPOS>ATOM
      1 C1         -0.0164    1.3597    0.0095 C.2       1 <0>         0.2145
      2 N1          1.2103    1.8108    0.0002 N.2       1 <0>        -0.4318
      3 C2          2.0482    0.7650   -0.0120 C.2       1 <0>        -0.0976
      4 C3          1.2845   -0.3957   -0.0164 C.2       1 <0>        -0.0014
      5 N2          0.0021   -0.0041    0.0020 N.pl3     1 <0>        -0.4260
      6 C4         -1.1694   -0.8837    0.0123 C.3       1 <0>         0.2760
      7 H1         -0.9726   -1.7685   -0.5930 H         1 <0>         0.1187
      8 C5         -1.4970   -1.3028    1.4616 C.3       1 <0>        -0.1571
      9 C6         -2.6306   -0.3121    1.8430 C.3       1 <0>        -0.1521
     10 C7         -3.3528   -0.1533    0.4813 C.3       1 <0>         0.0724
     11 H2         -4.0462   -0.9791    0.3223 H         1 <0>         0.0975
     12 O1         -2.3070   -0.1839   -0.5055 O.3       1 <0>        -0.3381
     13 C8         -4.0976    1.1821    0.4278 C.3       1 <0>         0.1325
     14 O2         -4.8503    1.2595   -0.7844 O.3       1 <0>        -0.7604
     15 P1         -5.7579    2.5312   -1.1733 P.3       1 <0>         2.2888
     16 O3         -6.7639    2.8133   -0.0353 O.2       1 <0>        -1.1051
     17 O4         -4.8528    3.7664   -1.3785 O.3       1 <0>        -1.1155
     18 O5         -6.5602    2.2217   -2.5344 O.3       1 <0>        -1.0976
     19 P2         -7.8163    2.9067   -3.2727 P.3       1 <0>         2.3450
     20 O6         -8.8688    3.3213   -2.2203 O.2       1 <0>        -1.1159
     21 O7         -7.3404    4.1571   -4.0454 O.3       1 <0>        -1.1397
     22 O8         -8.4717    1.8567   -4.3023 O.3       1 <0>        -1.1051
     23 P3         -9.8733    1.7908   -5.0918 P.3       1 <0>         2.2211
     24 O9        -11.0264    2.2792   -4.1504 O.2       1 <0>        -1.1973
     25 O10        -9.8046    2.7140   -6.3557 O.3       1 <0>        -1.2114
     26 O11       -10.1527    0.3151   -5.5375 O.3       1 <0>        -1.2132
     27 C9          1.8855   -1.7703   -0.0453 C.3       1 <0>         0.1575
     28 N3          3.3165   -1.7320    0.2180 N.2       1 <0>        -0.5809
     29 C10         4.0704   -0.6907    0.2361 C.2       1 <0>         0.3896
     30 C11         3.5192    0.6793   -0.0138 C.2       1 <0>         0.4434
     31 O12         4.2307    1.6462   -0.2040 O.2       1 <0>        -0.4332
     32 N4          5.4166   -0.8385    0.4919 N.pl3     1 <0>        -0.8309
     33 H3         -0.9062    1.9716    0.0254 H         1 <0>         0.2239
     34 H4         -1.8534   -2.3323    1.4965 H         1 <0>         0.0996
     35 H5         -0.6306   -1.1689    2.1093 H         1 <0>         0.0868
     36 H6         -3.2945   -0.7442    2.5917 H         1 <0>         0.0986
     37 H7         -2.2225    0.6392    2.1845 H         1 <0>         0.0869
     38 H8         -4.7729    1.2559    1.2802 H         1 <0>         0.0714
     39 H9         -3.3786    2.0007    0.4620 H         1 <0>         0.0530
     40 H10         1.4005   -2.3872    0.7113 H         1 <0>         0.1078
     41 H11         1.7156   -2.2130   -1.0268 H         1 <0>         0.1077
     42 H12         5.7852   -1.7206    0.6556 H         1 <0>         0.4057
     43 H13         5.9955   -0.0603    0.5082 H         1 <0>         0.4116
@<TRIPOS>BOND
     1    1    5 1
     2    1    2 2
     3    1   33 1
     4    2    3 1
     5    3   30 1
     6    3    4 2
     7    4    5 1
     8    4   27 1
     9    5    6 1
    10    6    7 1
    11    6   12 1
    12    6    8 1
    13    8    9 1
    14    8   34 1
    15    8   35 1
    16    9   10 1
    17    9   36 1
    18    9   37 1
    19   10   11 1
    20   10   12 1
    21   10   13 1
    22   13   14 1
    23   13   38 1
    24   13   39 1
    25   14   15 1
    26   15   16 2
    27   15   17 1
    28   15   18 1
    29   18   19 1
    30   19   20 2
    31   19   21 1
    32   19   22 1
    33   22   23 1
    34   23   24 2
    35   23   25 1
    36   23   26 1
    37   27   28 1
    38   27   40 1
    39   27   41 1
    40   28   29 2
    41   29   30 1
    42   29   32 1
    43   30   31 2
    44   32   42 1
    45   32   43 1
@<TRIPOS>MOLECULE
CHEMBL195111__6
   44    46     0     0     0
SMALL
USER_CHARGES

@<TRIPOS>ATOM
      1 C1         -0.0164    1.3597    0.0095 C.2       1 <0>         0.2538
      2 N1          1.2103    1.8108    0.0002 N.2       1 <0>        -0.4143
      3 C2          2.0482    0.7650   -0.0120 C.2       1 <0>        -0.0806
      4 C3          1.2845   -0.3957   -0.0164 C.2       1 <0>        -0.0101
      5 N2          0.0021   -0.0041    0.0020 N.pl3     1 <0>        -0.4058
      6 C4         -1.1694   -0.8837    0.0123 C.3       1 <0>         0.2653
      7 H1         -0.9726   -1.7685   -0.5930 H         1 <0>         0.1259
      8 C5         -1.4970   -1.3028    1.4616 C.3       1 <0>        -0.1589
      9 C6         -2.6306   -0.3121    1.8430 C.3       1 <0>        -0.1539
     10 C7         -3.3528   -0.1533    0.4813 C.3       1 <0>         0.0707
     11 H2         -4.0462   -0.9791    0.3223 H         1 <0>         0.1040
     12 O1         -2.3070   -0.1839   -0.5055 O.3       1 <0>        -0.3316
     13 C8         -4.0976    1.1821    0.4278 C.3       1 <0>         0.1304
     14 O2         -4.8503    1.2595   -0.7844 O.3       1 <0>        -0.7594
     15 P1         -5.7579    2.5312   -1.1733 P.3       1 <0>         2.2848
     16 O3         -6.7639    2.8133   -0.0353 O.2       1 <0>        -1.1013
     17 O4         -4.8528    3.7664   -1.3785 O.3       1 <0>        -1.1135
     18 O5         -6.5602    2.2217   -2.5344 O.3       1 <0>        -1.0970
     19 P2         -7.8163    2.9067   -3.2727 P.3       1 <0>         2.3417
     20 O6         -8.8688    3.3213   -2.2203 O.2       1 <0>        -1.1136
     21 O7         -7.3404    4.1571   -4.0454 O.3       1 <0>        -1.1378
     22 O8         -8.4717    1.8567   -4.3023 O.3       1 <0>        -1.1047
     23 P3         -9.8733    1.7908   -5.0918 P.3       1 <0>         2.2185
     24 O9        -11.0264    2.2792   -4.1503 O.2       1 <0>        -1.1957
     25 O10        -9.8046    2.7140   -6.3557 O.3       1 <0>        -1.2099
     26 O11       -10.1527    0.3151   -5.5375 O.3       1 <0>        -1.2121
     27 C9          1.8855   -1.7703   -0.0453 C.3       1 <0>         0.1664
     28 N3          3.3165   -1.7320    0.2180 N.pl3     1 <0>        -0.5674
     29 C10         4.0703   -0.6906    0.2365 C.cat     1 <0>         0.5025
     30 C11         3.5192    0.6793   -0.0138 C.2       1 <0>         0.4640
     31 O12         4.2307    1.6462   -0.2040 O.2       1 <0>        -0.3578
     32 N4          5.4165   -0.8384    0.4927 N.pl3     1 <0>        -0.7668
     33 H3         -0.9062    1.9716    0.0254 H         1 <0>         0.2394
     34 H4         -1.8534   -2.3323    1.4965 H         1 <0>         0.1062
     35 H5         -0.6306   -1.1689    2.1093 H         1 <0>         0.0860
     36 H6         -3.2945   -0.7442    2.5917 H         1 <0>         0.1050
     37 H7         -2.2225    0.6392    2.1845 H         1 <0>         0.0895
     38 H8         -4.7729    1.2559    1.2802 H         1 <0>         0.0759
     39 H9         -3.3786    2.0007    0.4620 H         1 <0>         0.0529
     40 H10         1.4005   -2.3872    0.7113 H         1 <0>         0.1467
     41 H11         1.7156   -2.2130   -1.0268 H         1 <0>         0.1488
     42 H12         5.7851   -1.7205    0.6564 H         1 <0>         0.4295
     43 H13         5.9953   -0.0602    0.5093 H         1 <0>         0.4503
     44 H14         3.7470   -2.5822    0.3989 H         1 <0>         0.4346
@<TRIPOS>BOND
     1    1    5 1
     2    1    2 2
     3    1   33 1
     4    2    3 1
     5    3   30 1
     6    3    4 2
     7    4    5 1
     8    4   27 1
     9    5    6 1
    10    6    7 1
    11    6   12 1
    12    6    8 1
    13    8    9 1
    14    8   34 1
    15    8   35 1
    16    9   10 1
    17    9   36 1
    18    9   37 1
    19   10   11 1
    20   10   12 1
    21   10   13 1
    22   13   14 1
    23   13   38 1
    24   13   39 1
    25   14   15 1
    26   15   16 2
    27   15   17 1
    28   15   18 1
    29   18   19 1
    30   19   20 2
    31   19   21 1
    32   19   22 1
    33   22   23 1
    34   23   24 2
    35   23   25 1
    36   23   26 1
    37   27   28 1
    38   27   40 1
    39   27   41 1
    40   28   29 2
    41   28   44 1
    42   29   30 1
    43   29   32 1
    44   30   31 2
    45   32   42 1
    46   32   43 1
@<TRIPOS>MOLECULE
CHEMBL195111__7
   43    45     0     0     0
SMALL
USER_CHARGES

@<TRIPOS>ATOM
      1 C1         -0.0164    1.3597    0.0095 C.2       1 <0>         0.2145
      2 N1          1.2103    1.8108    0.0002 N.2       1 <0>        -0.4318
      3 C2          2.0482    0.7650   -0.0120 C.2       1 <0>        -0.0976
      4 C3          1.2845   -0.3957   -0.0164 C.2       1 <0>        -0.0014
      5 N2          0.0021   -0.0041    0.0020 N.pl3     1 <0>        -0.4260
      6 C4         -1.1694   -0.8837    0.0123 C.3       1 <0>         0.2760
      7 H1         -0.9726   -1.7685   -0.5930 H         1 <0>         0.1187
      8 C5         -1.4970   -1.3028    1.4616 C.3       1 <0>        -0.1571
      9 C6         -2.6306   -0.3121    1.8430 C.3       1 <0>        -0.1521
     10 C7         -3.3528   -0.1533    0.4813 C.3       1 <0>         0.0724
     11 H2         -4.0462   -0.9791    0.3223 H         1 <0>         0.0975
     12 O1         -2.3070   -0.1839   -0.5055 O.3       1 <0>        -0.3381
     13 C8         -4.0976    1.1821    0.4278 C.3       1 <0>         0.1325
     14 O2         -4.8503    1.2595   -0.7844 O.3       1 <0>        -0.7604
     15 P1         -5.7579    2.5312   -1.1733 P.3       1 <0>         2.2888
     16 O3         -6.7639    2.8133   -0.0353 O.2       1 <0>        -1.1051
     17 O4         -4.8528    3.7664   -1.3785 O.3       1 <0>        -1.1155
     18 O5         -6.5602    2.2217   -2.5344 O.3       1 <0>        -1.0976
     19 P2         -7.8163    2.9067   -3.2727 P.3       1 <0>         2.3450
     20 O6         -8.8688    3.3213   -2.2203 O.2       1 <0>        -1.1159
     21 O7         -7.3404    4.1571   -4.0454 O.3       1 <0>        -1.1397
     22 O8         -8.4717    1.8567   -4.3023 O.3       1 <0>        -1.1051
     23 P3         -9.8733    1.7908   -5.0918 P.3       1 <0>         2.2211
     24 O9        -11.0264    2.2792   -4.1504 O.2       1 <0>        -1.1973
     25 O10        -9.8046    2.7140   -6.3557 O.3       1 <0>        -1.2114
     26 O11       -10.1527    0.3151   -5.5375 O.3       1 <0>        -1.2132
     27 C9          1.8855   -1.7703   -0.0453 C.3       1 <0>         0.1575
     28 N3          3.3165   -1.7320    0.2180 N.2       1 <0>        -0.5809
     29 C10         4.0704   -0.6907    0.2361 C.2       1 <0>         0.3896
     30 C11         3.5192    0.6793   -0.0138 C.2       1 <0>         0.4434
     31 O12         4.2307    1.6462   -0.2040 O.2       1 <0>        -0.4332
     32 N4          5.4166   -0.8385    0.4919 N.pl3     1 <0>        -0.8309
     33 H3         -0.9062    1.9716    0.0254 H         1 <0>         0.2239
     34 H4         -1.8534   -2.3323    1.4965 H         1 <0>         0.0996
     35 H5         -0.6306   -1.1689    2.1093 H         1 <0>         0.0868
     36 H6         -3.2945   -0.7442    2.5917 H         1 <0>         0.0986
     37 H7         -2.2225    0.6392    2.1845 H         1 <0>         0.0869
     38 H8         -4.7729    1.2559    1.2802 H         1 <0>         0.0714
     39 H9         -3.3786    2.0007    0.4620 H         1 <0>         0.0530
     40 H10         1.4005   -2.3872    0.7113 H         1 <0>         0.1078
     41 H11         1.7156   -2.2130   -1.0268 H         1 <0>         0.1077
     42 H12         5.7852   -1.7206    0.6556 H         1 <0>         0.4057
     43 H13         5.9955   -0.0603    0.5082 H         1 <0>         0.4116
@<TRIPOS>BOND
     1    1    5 1
     2    1    2 2
     3    1   33 1
     4    2    3 1
     5    3   30 1
     6    3    4 2
     7    4    5 1
     8    4   27 1
     9    5    6 1
    10    6    7 1
    11    6   12 1
    12    6    8 1
    13    8    9 1
    14    8   34 1
    15    8   35 1
    16    9   10 1
    17    9   36 1
    18    9   37 1
    19   10   11 1
    20   10   12 1
    21   10   13 1
    22   13   14 1
    23   13   38 1
    24   13   39 1
    25   14   15 1
    26   15   16 2
    27   15   17 1
    28   15   18 1
    29   18   19 1
    30   19   20 2
    31   19   21 1
    32   19   22 1
    33   22   23 1
    34   23   24 2
    35   23   25 1
    36   23   26 1
    37   27   28 1
    38   27   40 1
    39   27   41 1
    40   28   29 2
    41   29   30 1
    42   29   32 1
    43   30   31 2
    44   32   42 1
    45   32   43 1
@<TRIPOS>MOLECULE
CHEMBL283614
   35    36     0     0     0
SMALL
USER_CHARGES

@<TRIPOS>ATOM
      1 C1          0.5141    0.5753    0.6109 C.3       1 <0>        -0.1477
      2 C2          0.2055   -0.9108    0.4188 C.3       1 <0>         0.0052
      3 C3          0.7065   -1.6968    1.6322 C.3       1 <0>        -0.1468
      4 C4         -1.2482   -1.0962    0.2803 C.1       1 <0>        -0.0607
      5 C5         -2.4076   -1.2441    0.1698 C.1       1 <0>        -0.2715
      6 C6         -3.8613   -1.4294    0.0313 C.3       1 <0>         0.2735
      7 C7         -4.1345   -2.8896   -0.1551 C.ar      1 <0>        -0.1482
      8 C8         -4.4173   -3.6109    1.0031 C.ar      1 <0>        -0.0953
      9 C9         -4.6877   -4.9611    0.9575 C.ar      1 <0>        -0.0513
     10 C10        -4.6791   -5.6157   -0.2622 C.ar      1 <0>        -0.0557
     11 C11        -4.4001   -4.9129   -1.4090 C.ar      1 <0>        -0.1497
     12 C12        -4.1204   -3.5365   -1.3730 C.ar      1 <0>         0.2116
     13 N1         -3.8494   -2.9601   -2.5952 N.am      1 <0>        -0.6462
     14 C13        -3.6962   -1.7350   -3.0229 C.2       1 <0>         0.5008
     15 O1         -3.6747   -1.5742   -4.2248 O.2       1 <0>        -0.5165
     16 C14        -3.5457   -0.5160   -2.1793 C.3       1 <0>         0.0549
     17 O2         -4.3132   -0.6046   -1.0012 O.3       1 <0>        -0.3331
     18 Cl1        -5.0354   -5.8341    2.4172 Cl        1 <0>        -0.0509
     19 C15        -4.5280   -0.9806    1.3332 C.3       1 <0>         0.4749
     20 F1         -4.4300    0.4099    1.4520 F         1 <0>        -0.1586
     21 F2         -5.8762   -1.3537    1.3194 F         1 <0>        -0.1592
     22 F3         -3.8872   -1.5877    2.4186 F         1 <0>        -0.1565
     23 H1          1.5906    0.7126    0.7135 H         1 <0>         0.0731
     24 H2          0.1572    1.1352   -0.2535 H         1 <0>         0.0629
     25 H3          0.0145    0.9370    1.5096 H         1 <0>         0.0632
     26 H4          0.7052   -1.2725   -0.4799 H         1 <0>         0.1028
     27 H5          0.2069   -1.3351    2.5309 H         1 <0>         0.0633
     28 H6          0.4867   -2.7555    1.4953 H         1 <0>         0.0600
     29 H7          1.7830   -1.5595    1.7347 H         1 <0>         0.0731
     30 H8         -4.4244   -3.1015    1.9554 H         1 <0>         0.1669
     31 H9         -4.8903   -6.6737   -0.3118 H         1 <0>         0.1492
     32 H10        -4.3949   -5.4290   -2.3576 H         1 <0>         0.1464
     33 H11        -3.7488   -3.6165   -3.3022 H         1 <0>         0.4061
     34 H12        -2.4961   -0.3957   -1.9111 H         1 <0>         0.1022
     35 H13        -3.8683    0.3545   -2.7505 H         1 <0>         0.1578
@<TRIPOS>BOND
     1    1    2 1
     2    1   23 1
     3    1   24 1
     4    1   25 1
     5    2    3 1
     6    2    4 1
     7    2   26 1
     8    3   27 1
     9    3   28 1
    10    3   29 1
    11    4    5 3
    12    5    6 1
    13    6   17 1
    14    6    7 1
    15    6   19 1
    16    7   12 ar
    17    7    8 ar
    18    8    9 ar
    19    8   30 1
    20    9   10 ar
    21    9   18 1
    22   10   11 ar
    23   10   31 1
    24   11   12 ar
    25   11   32 1
    26   12   13 1
    27   13   14 am
    28   13   33 1
    29   14   15 2
    30   14   16 1
    31   16   17 1
    32   16   34 1
    33   16   35 1
    34   19   20 1
    35   19   21 1
    36   19   22 1
@<TRIPOS>MOLECULE
CHEMBL283614__1
   35    36     0     0     0
SMALL
USER_CHARGES

@<TRIPOS>ATOM
      1 C1          0.1823    1.2340   -0.2029 C.3       1 <0>        -0.1471
      2 C2          0.0925   -0.2925   -0.1506 C.3       1 <0>         0.0050
      3 C3          0.8279   -0.8044    1.0896 C.3       1 <0>        -0.1484
      4 C4         -1.3208   -0.6989   -0.0856 C.1       1 <0>        -0.0604
      5 C5         -2.4480   -1.0230   -0.0337 C.1       1 <0>        -0.2716
      6 C6         -3.8613   -1.4294    0.0313 C.3       1 <0>         0.2735
      7 C7         -3.9199   -2.9246    0.0814 C.ar      1 <0>        -0.1484
      8 C8         -4.0620   -3.5719   -1.1443 C.ar      1 <0>        -0.0954
      9 C9         -4.1303   -4.9456   -1.2247 C.ar      1 <0>        -0.0513
     10 C10        -4.0569   -5.6994   -0.0659 C.ar      1 <0>        -0.0557
     11 C11        -3.9155   -5.0697    1.1467 C.ar      1 <0>        -0.1497
     12 C12        -3.8420   -3.6698    1.2393 C.ar      1 <0>         0.2115
     13 N1         -3.6917   -3.1726    2.5159 N.am      1 <0>        -0.6462
     14 C13        -3.7331   -1.9819    3.0523 C.2       1 <0>         0.5008
     15 O1         -3.7673   -1.9287    4.2635 O.2       1 <0>        -0.5165
     16 C14        -3.7429   -0.6830    2.3223 C.3       1 <0>         0.0546
     17 O2         -4.4575   -0.7755    1.1118 O.3       1 <0>        -0.3329
     18 Cl1        -4.3075   -5.7246   -2.7660 Cl        1 <0>        -0.0509
     19 C15        -4.5526   -0.9667   -1.2528 C.3       1 <0>         0.4749
     20 F1         -3.8007   -1.3739   -2.3601 F         1 <0>        -0.1564
     21 F2         -5.8306   -1.5314   -1.3238 F         1 <0>        -0.1592
     22 F3         -4.6588    0.4282   -1.2487 F         1 <0>        -0.1586
     23 H1          1.2288    1.5350   -0.2510 H         1 <0>         0.0731
     24 H2         -0.3416    1.5987   -1.0864 H         1 <0>         0.0628
     25 H3         -0.2763    1.6558    0.6914 H         1 <0>         0.0633
     26 H4          0.5511   -0.7143   -1.0449 H         1 <0>         0.1023
     27 H5          0.3693   -0.3826    1.9839 H         1 <0>         0.0640
     28 H6          0.7639   -1.8919    1.1268 H         1 <0>         0.0603
     29 H7          1.8744   -0.5034    1.0414 H         1 <0>         0.0737
     30 H8         -4.1202   -2.9852   -2.0492 H         1 <0>         0.1669
     31 H9         -4.1109   -6.7769   -0.1150 H         1 <0>         0.1493
     32 H10        -3.8594   -5.6630    2.0474 H         1 <0>         0.1464
     33 H11        -3.5143   -3.8686    3.1679 H         1 <0>         0.4062
     34 H12        -4.2058    0.0763    2.9526 H         1 <0>         0.1577
     35 H13        -2.7160   -0.3877    2.1069 H         1 <0>         0.1023
@<TRIPOS>BOND
     1    1    2 1
     2    1   23 1
     3    1   24 1
     4    1   25 1
     5    2    3 1
     6    2    4 1
     7    2   26 1
     8    3   27 1
     9    3   28 1
    10    3   29 1
    11    4    5 3
    12    5    6 1
    13    6   17 1
    14    6    7 1
    15    6   19 1
    16    7   12 ar
    17    7    8 ar
    18    8    9 ar
    19    8   30 1
    20    9   10 ar
    21    9   18 1
    22   10   11 ar
    23   10   31 1
    24   11   12 ar
    25   11   32 1
    26   12   13 1
    27   13   14 am
    28   13   33 1
    29   14   15 2
    30   14   16 1
    31   16   17 1
    32   16   34 1
    33   16   35 1
    34   19   20 1
    35   19   21 1
    36   19   22 1
@<TRIPOS>MOLECULE
CHEMBL318002
   47    50     0     0     0
SMALL
USER_CHARGES

@<TRIPOS>ATOM
      1 C1         -0.0187    1.5258    0.0104 C.3       1 <0>        -0.1715
      2 C2          0.0021   -0.0041    0.0020 C.3       1 <0>         0.1344
      3 N1          0.6878   -0.4765   -1.2033 N.pl3     1 <0>        -0.5780
      4 C3         -0.0294   -0.7093   -2.3768 C.ar      1 <0>         0.3975
      5 C4          0.2585    0.0023   -3.5383 C.ar      1 <0>         0.0826
      6 C5         -0.4395   -0.2997   -4.7036 C.ar      1 <0>        -0.0560
      7 C6         -1.4210   -1.2787   -4.6567 C.ar      1 <0>        -0.1726
      8 C7         -1.6763   -1.9223   -3.4598 C.ar      1 <0>         0.3235
      9 N2         -0.9869   -1.6271   -2.3725 N.ar      1 <0>        -0.5059
     10 F1         -2.6428   -2.8644   -3.4017 F         1 <0>        -0.1026
     11 N3          1.1867    1.0421   -3.5532 N.am      1 <0>        -0.5356
     12 C8          2.3525    1.0759   -2.9248 C.2       1 <0>         0.5759
     13 O1          3.0362    2.0699   -3.0755 O.2       1 <0>        -0.5169
     14 C9          2.8894    0.0178   -2.0635 C.ar      1 <0>        -0.1994
     15 C10         2.0554   -0.6913   -1.1914 C.ar      1 <0>         0.4278
     16 N4          2.5741   -1.5853   -0.3621 N.ar      1 <0>        -0.4960
     17 C11         3.8621   -1.8682   -0.3607 C.ar      1 <0>         0.1825
     18 C12         4.7346   -1.2395   -1.2300 C.ar      1 <0>        -0.1730
     19 C13         4.2544   -0.2876   -2.0950 C.ar      1 <0>         0.0260
     20 C14         6.1978   -1.6003   -1.2316 C.3       1 <0>         0.1035
     21 O2          6.4247   -2.6656   -2.1565 O.3       1 <0>        -0.2941
     22 C15         7.7008   -3.1136   -2.2800 C.ar      1 <0>         0.1714
     23 C16         8.7296   -2.5535   -1.5276 C.ar      1 <0>        -0.2157
     24 C17        10.0134   -3.0362   -1.6815 C.ar      1 <0>         0.1180
     25 N5         10.2707   -4.0154   -2.5290 N.ar      1 <0>        -0.1415
     26 O3         11.6013   -4.4825   -2.6578 O.3       1 <0>        -0.5574
     27 C18         9.3217   -4.5715   -3.2596 C.ar      1 <0>         0.1144
     28 C19         8.0120   -4.1483   -3.1579 C.ar      1 <0>        -0.1543
     29 C20         0.8363    2.2218   -4.3481 C.3       1 <0>         0.0639
     30 H1          1.0039    1.9031    0.0027 H         1 <0>         0.0553
     31 H2         -0.5459    1.8868   -0.8726 H         1 <0>         0.0553
     32 H3         -0.5289    1.8773    0.9072 H         1 <0>         0.0754
     33 H4          0.5293   -0.3651    0.8851 H         1 <0>         0.0873
     34 H5         -1.0205   -0.3814    0.0098 H         1 <0>         0.0866
     35 H6         -0.2216    0.2180   -5.6260 H         1 <0>         0.1615
     36 H7         -1.9798   -1.5350   -5.5447 H         1 <0>         0.1628
     37 H8          4.2425   -2.6041    0.3322 H         1 <0>         0.1716
     38 H9          4.9190    0.2191   -2.7791 H         1 <0>         0.1524
     39 H10         6.7860   -0.7313   -1.5268 H         1 <0>         0.0875
     40 H11         6.4948   -1.9175   -0.2320 H         1 <0>         0.0898
     41 H12         8.5259   -1.7519   -0.8332 H         1 <0>         0.1676
     42 H13        10.8174   -2.6074   -1.1018 H         1 <0>         0.1862
     43 H14         9.5728   -5.3701   -3.9419 H         1 <0>         0.1901
     44 H15         7.2397   -4.6104   -3.7548 H         1 <0>         0.1713
     45 H16         0.2943    2.9324   -3.7242 H         1 <0>         0.0705
     46 H17         1.7460    2.6892   -4.7250 H         1 <0>         0.0961
     47 H18         0.2080    1.9214   -5.1866 H         1 <0>         0.0818
@<TRIPOS>BOND
     1    1    2 1
     2    1   30 1
     3    1   31 1
     4    1   32 1
     5    2    3 1
     6    2   33 1
     7    2   34 1
     8    3   15 1
     9    3    4 1
    10    4    9 ar
    11    4    5 ar
    12    5    6 ar
    13    5   11 1
    14    6    7 ar
    15    6   35 1
    16    7    8 ar
    17    7   36 1
    18    8    9 ar
    19    8   10 1
    20   11   12 am
    21   11   29 1
    22   12   13 2
    23   12   14 1
    24   14   19 ar
    25   14   15 ar
    26   15   16 ar
    27   16   17 ar
    28   17   18 ar
    29   17   37 1
    30   18   19 ar
    31   18   20 1
    32   19   38 1
    33   20   21 1
    34   20   39 1
    35   20   40 1
    36   21   22 1
    37   22   28 ar
    38   22   23 ar
    39   23   24 ar
    40   23   41 1
    41   24   25 ar
    42   24   42 1
    43   25   26 1
    44   25   27 ar
    45   27   28 ar
    46   27   43 1
    47   28   44 1
    48   29   45 1
    49   29   46 1
    50   29   47 1
@<TRIPOS>MOLECULE
CHEMBL60545
   33    35     0     0     0
SMALL
USER_CHARGES

@<TRIPOS>ATOM
      1 C1         -0.0167    1.3793    0.0096 C.ar      1 <0>        -0.0722
      2 C2          1.1938    2.0588    0.0017 C.ar      1 <0>        -0.1548
      3 C3          2.3752    1.3407   -0.0134 C.ar      1 <0>         0.1067
      4 N1          2.3666    0.0233   -0.0204 N.ar      1 <0>        -0.4613
      5 C4          1.2309   -0.6650   -0.0133 C.ar      1 <0>         0.2098
      6 C5          0.0021   -0.0041    0.0020 C.ar      1 <0>        -0.1345
      7 C6          1.2677   -2.0965   -0.0213 C.1       1 <0>        -0.0187
      8 C7          1.2978   -3.2701   -0.0279 C.1       1 <0>        -0.1928
      9 C8          1.3356   -4.7416   -0.0362 C.3       1 <0>         0.3225
     10 C9         -0.0895   -5.2445   -0.0253 C.ar      1 <0>        -0.1785
     11 C10        -0.5006   -6.0677   -1.0681 C.ar      1 <0>         0.2190
     12 C11        -1.8033   -6.5464   -1.0875 C.ar      1 <0>        -0.1374
     13 C12        -2.6790   -6.2033   -0.0749 C.ar      1 <0>        -0.0622
     14 C13        -2.2644   -5.3835    0.9600 C.ar      1 <0>         0.0455
     15 C14        -0.9614   -4.9024    0.9846 C.ar      1 <0>         0.1435
     16 F1         -0.5519   -4.1024    1.9933 F         1 <0>        -0.0974
     17 F2         -3.1260   -5.0519    1.9463 F         1 <0>        -0.1170
     18 N2          0.3977   -6.4047   -2.0828 N.am      1 <0>        -0.6529
     19 C15         1.6636   -5.9688   -2.1092 C.2       1 <0>         0.7197
     20 O1          2.3756   -6.3124   -3.0330 O.2       1 <0>        -0.5442
     21 N3          2.1842   -5.1678   -1.1619 N.am      1 <0>        -0.7020
     22 C16         2.0067   -5.1995    1.2603 C.3       1 <0>         0.4418
     23 F3          1.2681   -4.7391    2.3556 F         1 <0>        -0.1546
     24 F4          2.0611   -6.5971    1.2889 F         1 <0>        -0.1656
     25 F5          3.3046   -4.6810    1.3220 F         1 <0>        -0.1663
     26 H1         -0.9523    1.9185    0.0259 H         1 <0>         0.1457
     27 H2          1.2125    3.1386    0.0070 H         1 <0>         0.1447
     28 H3          3.3183    1.8671   -0.0200 H         1 <0>         0.1673
     29 H4         -0.9212   -0.5644    0.0082 H         1 <0>         0.1419
     30 H5         -2.1320   -7.1866   -1.8928 H         1 <0>         0.1599
     31 H6         -3.6922   -6.5767   -0.0915 H         1 <0>         0.1640
     32 H7          0.0908   -6.9800   -2.8009 H         1 <0>         0.4367
     33 H8          3.1070   -4.8747   -1.2197 H         1 <0>         0.4436
@<TRIPOS>BOND
     1    1    6 ar
     2    1    2 ar
     3    1   26 1
     4    2    3 ar
     5    2   27 1
     6    3    4 ar
     7    3   28 1
     8    4    5 ar
     9    5    6 ar
    10    5    7 1
    11    6   29 1
    12    7    8 3
    13    8    9 1
    14    9   21 1
    15    9   10 1
    16    9   22 1
    17   10   15 ar
    18   10   11 ar
    19   11   12 ar
    20   11   18 1
    21   12   13 ar
    22   12   30 1
    23   13   14 ar
    24   13   31 1
    25   14   15 ar
    26   14   17 1
    27   15   16 1
    28   18   19 am
    29   18   32 1
    30   19   20 2
    31   19   21 am
    32   21   33 1
    33   22   23 1
    34   22   24 1
    35   22   25 1
@<TRIPOS>MOLECULE
CHEMBL135235
   51    54     0     0     0
SMALL
USER_CHARGES

@<TRIPOS>ATOM
      1 C1         -0.0187    1.5258    0.0104 C.3       1 <0>        -0.1370
      2 C2          0.0021   -0.0041    0.0020 C.3       1 <0>        -0.0436
      3 C3         -1.4164   -0.5316    0.0517 C.3       1 <0>        -0.1023
      4 C4         -2.0975    0.0724    1.2949 C.3       1 <0>        -0.1145
      5 C5         -1.3097   -0.2634    2.5531 C.3       1 <0>        -0.0501
      6 H1         -1.2932   -1.3485    2.6550 H         1 <0>         0.0866
      7 C6          0.1401    0.2178    2.4559 C.3       1 <0>        -0.0717
      8 H2          0.1699    1.2997    2.3269 H         1 <0>         0.0999
      9 C7          0.7534   -0.5216    1.2604 C.3       1 <0>        -0.0786
     10 H3          0.6218   -1.5981    1.3703 H         1 <0>         0.0823
     11 C8          2.2051   -0.1719    0.9164 C.3       1 <0>        -0.1098
     12 C9          2.3090   -0.5550   -0.5852 C.3       1 <0>        -0.1483
     13 C10         0.8680   -0.4973   -1.1514 C.3       1 <0>         0.2504
     14 C11         0.4337   -1.8373   -1.5786 C.1       1 <0>        -0.2082
     15 C12         0.0873   -2.9061   -1.9193 C.1       1 <0>        -0.1822
     16 O1          0.8025    0.4182   -2.2466 O.3       1 <0>        -0.5405
     17 C13         0.8267   -0.1765    3.7660 C.3       1 <0>         0.0369
     18 C14         0.2120    0.6697    4.8740 C.3       1 <0>        -0.0849
     19 C15        -1.3022    0.6724    4.8264 C.2       1 <0>        -0.1054
     20 C16        -1.9725    0.3046    3.7866 C.2       1 <0>        -0.1076
     21 C17        -3.4797    0.4024    3.6947 C.3       1 <0>        -0.0806
     22 C18        -4.1373    0.3925    5.0697 C.3       1 <0>        -0.1748
     23 C19        -3.3971    1.4164    5.9101 C.2       1 <0>         0.3682
     24 O2         -3.9580    2.3697    6.3948 O.2       1 <0>        -0.4481
     25 C20        -1.9546    1.1400    6.1143 C.3       1 <0>        -0.1398
     26 C21         0.5887   -1.6606    4.0519 C.3       1 <0>        -0.1561
     27 Cl1         2.5960    0.1517    3.6538 Cl        1 <0>        -0.1701
     28 H4          1.0039    1.9031    0.0027 H         1 <0>         0.0593
     29 H5         -0.5459    1.8868   -0.8726 H         1 <0>         0.0633
     30 H6         -0.5289    1.8773    0.9072 H         1 <0>         0.0626
     31 H7         -1.9543   -0.2304   -0.8473 H         1 <0>         0.0689
     32 H8         -1.4038   -1.6188    0.1288 H         1 <0>         0.0655
     33 H9         -2.1529    1.1553    1.1839 H         1 <0>         0.0714
     34 H10        -3.1061   -0.3312    1.3840 H         1 <0>         0.0715
     35 H11         2.3886    0.8934    1.0562 H         1 <0>         0.0766
     36 H12         2.8968   -0.7652    1.5145 H         1 <0>         0.0794
     37 H13         2.9459    0.1572   -1.1099 H         1 <0>         0.0800
     38 H14         2.7110   -1.5630   -0.6873 H         1 <0>         0.0711
     39 H15        -0.2225   -3.8619   -2.2240 H         1 <0>         0.2179
     40 H16         1.3344    0.1563   -3.0105 H         1 <0>         0.3785
     41 H17         0.5341    0.2765    5.8383 H         1 <0>         0.0839
     42 H18         0.5701    1.6945    4.7754 H         1 <0>         0.0874
     43 H19        -3.7443    1.3271    3.1819 H         1 <0>         0.0811
     44 H20        -3.8550   -0.4418    3.1162 H         1 <0>         0.0866
     45 H21        -5.1879    0.6696    4.9832 H         1 <0>         0.0924
     46 H22        -4.0465   -0.5960    5.5200 H         1 <0>         0.1004
     47 H23        -1.8064    0.3847    6.8862 H         1 <0>         0.1177
     48 H24        -1.4907    2.0734    6.4331 H         1 <0>         0.0967
     49 H25         0.9983   -2.2578    3.2373 H         1 <0>         0.0700
     50 H26         1.0801   -1.9340    4.9857 H         1 <0>         0.0681
     51 H27        -0.4819   -1.8471    4.1366 H         1 <0>         0.0795
@<TRIPOS>BOND
     1    1    2 1
     2    1   28 1
     3    1   29 1
     4    1   30 1
     5    2    9 1
     6    2   13 1
     7    2    3 1
     8    3    4 1
     9    3   31 1
    10    3   32 1
    11    4    5 1
    12    4   33 1
    13    4   34 1
    14    5    6 1
    15    5   20 1
    16    5    7 1
    17    7    8 1
    18    7    9 1
    19    7   17 1
    20    9   10 1
    21    9   11 1
    22   11   12 1
    23   11   35 1
    24   11   36 1
    25   12   13 1
    26   12   37 1
    27   12   38 1
    28   13   14 1
    29   13   16 1
    30   14   15 3
    31   15   39 1
    32   16   40 1
    33   17   18 1
    34   17   26 1
    35   17   27 1
    36   18   19 1
    37   18   41 1
    38   18   42 1
    39   19   25 1
    40   19   20 2
    41   20   21 1
    42   21   22 1
    43   21   43 1
    44   21   44 1
    45   22   23 1
    46   22   45 1
    47   22   46 1
    48   23   24 2
    49   23   25 1
    50   25   47 1
    51   25   48 1
    52   26   49 1
    53   26   50 1
    54   26   51 1
@<TRIPOS>MOLECULE
CHEMBL558604
   37    40     0     0     0
SMALL
USER_CHARGES

@<TRIPOS>ATOM
      1 C1         -0.0167    1.3781    0.0096 C.ar      1 <0>        -0.0656
      2 C2          1.1709    2.0855    0.0021 C.ar      1 <0>        -0.1427
      3 C3          2.3773    1.4107   -0.0130 C.ar      1 <0>        -0.0237
      4 C4          2.3960    0.0285   -0.0201 C.ar      1 <0>        -0.6496
      5 C5          1.2084   -0.6789   -0.0117 C.ar      1 <0>        -0.0152
      6 C6          0.0021   -0.0041    0.0020 C.ar      1 <0>        -0.1500
      7 S1          3.9337   -0.8316   -0.0405 S.o2      1 <0>         2.6123
      8 O1          3.6744   -2.1140   -0.5951 O.2       1 <0>        -0.9168
      9 O2          4.8903    0.0598   -0.5970 O.2       1 <0>        -0.9474
     10 C7          4.4060   -1.0943    1.6365 C.2       1 <0>        -0.7062
     11 C8          5.2079   -0.1959    2.4656 C.ar      1 <0>        -0.0282
     12 C9          5.8121    1.0450    2.2421 C.ar      1 <0>        -0.0713
     13 C10         6.5204    1.6501    3.2562 C.ar      1 <0>        -0.0438
     14 C11         6.6369    1.0339    4.4959 C.ar      1 <0>        -0.0889
     15 C12         6.0475   -0.1892    4.7312 C.ar      1 <0>        -0.1055
     16 C13         5.3266   -0.8184    3.7225 C.ar      1 <0>         0.1000
     17 N1          4.6416   -2.0139    3.6570 N.pl3     1 <0>        -0.5696
     18 H1          4.5581   -2.6496    4.3848 H         1 <0>         0.4242
     19 C14         4.0897   -2.1662    2.4062 C.2       1 <0>         0.2943
     20 C15         3.2799   -3.3219    1.9667 C.2       1 <0>         0.1291
     21 C16         3.4195   -4.5378    2.5785 C.2       1 <0>        -0.2208
     22 S2          2.2322   -5.5109    1.6622 S.3       1 <0>         0.0237
     23 C17         1.6737   -4.2141    0.5666 C.2       1 <0>         0.4017
     24 N2          2.4010   -3.1908    0.9738 N.2       1 <0>        -0.5387
     25 N3          0.7247   -4.2677   -0.4411 N.pl3     1 <0>        -0.7913
     26 Cl1         7.2725    3.1909    2.9838 Cl        1 <0>        -0.0613
     27 H2         -0.9591    1.9053    0.0259 H         1 <0>         0.1289
     28 H3          1.1563    3.1654    0.0076 H         1 <0>         0.1323
     29 H4          3.3051    1.9634   -0.0196 H         1 <0>         0.1386
     30 H5          1.2231   -1.7588   -0.0176 H         1 <0>         0.1517
     31 H6         -0.9258   -0.5567    0.0082 H         1 <0>         0.1288
     32 H7          5.7240    1.5262    1.2793 H         1 <0>         0.1504
     33 H8          7.1954    1.5183    5.2832 H         1 <0>         0.1431
     34 H9          6.1454   -0.6588    5.6988 H         1 <0>         0.1366
     35 H10         4.0687   -4.8295    3.3907 H         1 <0>         0.1975
     36 H11         0.2617   -5.0994   -0.6275 H         1 <0>         0.4243
     37 H12         0.5233   -3.4736   -0.9604 H         1 <0>         0.4190
@<TRIPOS>BOND
     1    1    6 ar
     2    1    2 ar
     3    1   27 1
     4    2    3 ar
     5    2   28 1
     6    3    4 ar
     7    3   29 1
     8    4    5 ar
     9    4    7 1
    10    5    6 ar
    11    5   30 1
    12    6   31 1
    13    7    8 2
    14    7    9 2
    15    7   10 1
    16   10   19 2
    17   10   11 1
    18   11   16 ar
    19   11   12 ar
    20   12   13 ar
    21   12   32 1
    22   13   14 ar
    23   13   26 1
    24   14   15 ar
    25   14   33 1
    26   15   16 ar
    27   15   34 1
    28   16   17 1
    29   17   18 1
    30   17   19 1
    31   19   20 1
    32   20   24 1
    33   20   21 2
    34   21   22 1
    35   21   35 1
    36   22   23 1
    37   23   24 2
    38   23   25 1
    39   25   36 1
    40   25   37 1
@<TRIPOS>MOLECULE
CHEMBL147749
   32    33     0     0     0
SMALL
USER_CHARGES

@<TRIPOS>ATOM
      1 C1         -0.0168    1.3848    0.0097 C.ar      1 <0>        -0.1269
      2 C2          1.1682    2.1104    0.0022 C.ar      1 <0>        -0.0802
      3 C3          2.3700    1.4668   -0.0131 C.ar      1 <0>        -0.1836
      4 C4          2.4063    0.0489   -0.0210 C.ar      1 <0>         0.1182
      5 C5          1.1881   -0.6771   -0.0128 C.ar      1 <0>        -0.0619
      6 C6          0.0021   -0.0041    0.0020 C.ar      1 <0>        -0.0829
      7 C7          1.2041   -2.1840   -0.0215 C.3       1 <0>        -0.0864
      8 C8          1.3498   -2.7007    1.4112 C.3       1 <0>         0.1311
      9 N1          1.3653   -4.1656    1.4028 N.pl3     1 <0>        -0.6774
     10 C9          1.4859   -4.8449    2.5606 C.2       1 <0>         0.5265
     11 N2          1.5002   -6.1926    2.5528 N.pl3     1 <0>        -0.5839
     12 C10         1.6246   -6.8929    3.7463 C.2       1 <0>         0.2556
     13 N3          1.7326   -6.4149    4.9672 N.2       1 <0>        -0.4553
     14 C11         1.8442   -7.2202    6.0078 C.2       1 <0>         0.0516
     15 C12         1.8419   -8.5525    5.7588 C.2       1 <0>        -0.2306
     16 S1          1.6662   -8.5588    3.9820 S.3       1 <0>         0.0972
     17 S2          1.6210   -3.9960    4.0411 S.2       1 <0>        -0.5098
     18 N4          3.5666   -0.5908   -0.0364 N.2       1 <0>        -0.3434
     19 N5          4.5287   -0.0098   -0.0432 N.1       1 <0>         0.2981
     20 N6          5.4702    0.5589   -0.0498 N.1       1 <0>        -0.1186
     21 H1         -0.9624    1.9062    0.0260 H         1 <0>         0.1307
     22 H2          1.1370    3.1900    0.0083 H         1 <0>         0.1304
     23 H3          3.2894    2.0335   -0.0195 H         1 <0>         0.1195
     24 H4         -0.9275   -0.5539    0.0079 H         1 <0>         0.1355
     25 H5          0.2723   -2.5548   -0.4485 H         1 <0>         0.0837
     26 H6          2.0438   -2.5350   -0.6214 H         1 <0>         0.0889
     27 H7          2.2816   -2.3299    1.8382 H         1 <0>         0.0925
     28 H8          0.5102   -2.3497    2.0112 H         1 <0>         0.0911
     29 H9          1.4237   -6.6736    1.7139 H         1 <0>         0.4163
     30 H10         1.9335   -6.8343    7.0125 H         1 <0>         0.1773
     31 H11         1.9207   -9.3818    6.4461 H         1 <0>         0.1996
     32 H12         1.2888   -4.6466    0.5639 H         1 <0>         0.3972
@<TRIPOS>BOND
     1    1    6 ar
     2    1    2 ar
     3    1   21 1
     4    2    3 ar
     5    2   22 1
     6    3    4 ar
     7    3   23 1
     8    4    5 ar
     9    4   18 1
    10    5    6 ar
    11    5    7 1
    12    6   24 1
    13    7    8 1
    14    7   25 1
    15    7   26 1
    16    8    9 1
    17    8   27 1
    18    8   28 1
    19    9   10 1
    20    9   32 1
    21   10   11 1
    22   10   17 2
    23   11   12 1
    24   11   29 1
    25   12   16 1
    26   12   13 2
    27   13   14 1
    28   14   15 2
    29   14   30 1
    30   15   16 1
    31   15   31 1
    32   18   19 2
    33   19   20 2
@<TRIPOS>MOLECULE
CHEMBL133250
   42    44     0     0     0
SMALL
USER_CHARGES

@<TRIPOS>ATOM
      1 C1          0.4048    1.3386   -0.3582 C.3       1 <0>         0.0263
      2 O1          0.3479   -0.0884   -0.3089 O.3       1 <0>        -0.3192
      3 C2         -0.8861   -0.6548   -0.2321 C.ar      1 <0>         0.1103
      4 C3         -2.0200    0.1535   -0.2108 C.ar      1 <0>        -0.1759
      5 C4         -3.2768   -0.4034   -0.1338 C.ar      1 <0>        -0.0829
      6 C5         -3.4226   -1.7856   -0.0765 C.ar      1 <0>         0.0633
      7 C6         -2.2797   -2.6044   -0.0978 C.ar      1 <0>        -0.0585
      8 C7         -1.0099   -2.0287   -0.1814 C.ar      1 <0>        -0.1205
      9 C8         -2.7677   -3.9838   -0.0252 C.2       1 <0>        -0.1957
     10 C9         -4.1075   -3.9241    0.0329 C.2       1 <0>         0.0859
     11 N1         -4.5180   -2.6194    0.0034 N.pl3     1 <0>        -0.5895
     12 H1         -5.4417   -2.3249    0.0347 H         1 <0>         0.4208
     13 C10        -1.9251   -5.2332   -0.0180 C.3       1 <0>        -0.0507
     14 C11        -1.4705   -5.5335    1.4117 C.3       1 <0>         0.1080
     15 N2         -0.6514   -6.7481    1.4187 N.pl3     1 <0>        -0.6278
     16 C12        -0.1376   -7.2077    2.5768 C.2       1 <0>         0.5284
     17 N3          0.6160   -8.3251    2.5832 N.pl3     1 <0>        -0.6432
     18 C13         1.2125   -8.7565    3.7666 C.ar      1 <0>         0.4100
     19 C14         2.4974   -9.2874    3.7365 C.ar      1 <0>        -0.1248
     20 C15         3.0782   -9.7115    4.9183 C.ar      1 <0>         0.0433
     21 C16         2.3506   -9.5896    6.0954 C.ar      1 <0>        -0.1314
     22 C17         1.0786   -9.0526    6.0512 C.ar      1 <0>         0.1808
     23 N4          0.5528   -8.6520    4.9093 N.ar      1 <0>        -0.4261
     24 Br1         3.0933  -10.1532    7.7406 Br        1 <0>         0.0591
     25 S1         -0.4420   -6.3721    4.0397 S.2       1 <0>        -0.5599
     26 H2          1.4450    1.6589   -0.4178 H         1 <0>         0.1019
     27 H3         -0.1355    1.6937   -1.2357 H         1 <0>         0.0566
     28 H4         -0.0516    1.7517    0.5413 H         1 <0>         0.0563
     29 H5         -1.9125    1.2272   -0.2547 H         1 <0>         0.1353
     30 H6         -4.1493    0.2328   -0.1175 H         1 <0>         0.1276
     31 H7         -0.1299   -2.6545   -0.2022 H         1 <0>         0.1265
     32 H8         -4.7641   -4.7794    0.0938 H         1 <0>         0.1724
     33 H9         -2.5128   -6.0699   -0.3957 H         1 <0>         0.0815
     34 H10        -1.0519   -5.0863   -0.6536 H         1 <0>         0.0827
     35 H11        -0.8828   -4.6968    1.7894 H         1 <0>         0.1070
     36 H12        -2.3437   -5.6805    2.0473 H         1 <0>         0.1052
     37 H13         3.0345   -9.3679    2.8030 H         1 <0>         0.1956
     38 H14         4.0746  -10.1282    4.9255 H         1 <0>         0.1921
     39 H15         0.5088   -8.9557    6.9636 H         1 <0>         0.2205
     40 H16        -0.4790   -7.2216    0.5898 H         1 <0>         0.4136
     41 H17        -0.3410   -8.2751    4.9066 H         1 <0>         0.4547
     42 H18         0.7431   -8.8291    1.7642 H         1 <0>         0.4403
@<TRIPOS>BOND
     1    1    2 1
     2    1   26 1
     3    1   27 1
     4    1   28 1
     5    2    3 1
     6    3    8 ar
     7    3    4 ar
     8    4    5 ar
     9    4   29 1
    10    5    6 ar
    11    5   30 1
    12    6   11 1
    13    6    7 ar
    14    7    8 ar
    15    7    9 1
    16    8   31 1
    17    9   10 2
    18    9   13 1
    19   10   11 1
    20   10   32 1
    21   11   12 1
    22   13   14 1
    23   13   33 1
    24   13   34 1
    25   14   15 1
    26   14   35 1
    27   14   36 1
    28   15   16 1
    29   15   40 1
    30   16   17 1
    31   16   25 2
    32   17   18 1
    33   17   42 1
    34   18   23 ar
    35   18   19 ar
    36   19   20 ar
    37   19   37 1
    38   20   21 ar
    39   20   38 1
    40   21   22 ar
    41   21   24 1
    42   22   23 ar
    43   22   39 1
    44   23   41 1
@<TRIPOS>MOLECULE
CHEMBL133250__1
   40    42     0     0     0
SMALL
USER_CHARGES

@<TRIPOS>ATOM
      1 C1         -0.0173    1.4248    0.0099 C.3       1 <0>         0.0298
      2 O1          0.0021   -0.0041    0.0020 O.3       1 <0>        -0.3183
      3 C2          0.6262   -0.6188    1.0422 C.ar      1 <0>         0.0959
      4 C3          1.2036    0.1448    2.0537 C.ar      1 <0>        -0.1789
      5 C4          1.8389   -0.4613    3.1141 C.ar      1 <0>        -0.0944
      6 C5          1.9085   -1.8489    3.1822 C.ar      1 <0>         0.0661
      7 C6          1.3266   -2.6227    2.1624 C.ar      1 <0>        -0.0584
      8 C7          0.6800   -1.9971    1.0940 C.ar      1 <0>        -0.1027
      9 C8          1.5696   -4.0209    2.5256 C.2       1 <0>        -0.1614
     10 C9          2.2490   -4.0139    3.6834 C.2       1 <0>         0.0644
     11 N1          2.4612   -2.7256    4.0919 N.pl3     1 <0>        -0.5968
     12 H1          2.9307   -2.4674    4.9004 H         1 <0>         0.4143
     13 C10         1.1380   -5.2370    1.7472 C.3       1 <0>        -0.0553
     14 C11         2.1780   -5.5481    0.6690 C.3       1 <0>         0.1473
     15 N2          1.7584   -6.7303   -0.0876 N.pl3     1 <0>        -0.7118
     16 C12         2.5387   -7.2011   -1.1129 C.2       1 <0>         0.5585
     17 N3          2.1618   -8.2629   -1.7925 N.2       1 <0>        -0.6440
     18 C13         2.9382   -8.7312   -2.8125 C.ar      1 <0>         0.3636
     19 C14         2.5301   -9.8568   -3.5354 C.ar      1 <0>        -0.1925
     20 C15         3.3269  -10.3178   -4.5649 C.ar      1 <0>        -0.0479
     21 C16         4.5097   -9.6417   -4.8442 C.ar      1 <0>        -0.2107
     22 C17         4.8540   -8.5361   -4.0911 C.ar      1 <0>         0.1446
     23 N4          4.0745   -8.1110   -3.1156 N.ar      1 <0>        -0.4145
     24 Br1         5.6376  -10.2314   -6.2428 Br        1 <0>        -0.0973
     25 S1          4.0458   -6.3838   -1.5197 S.3       1 <0>        -0.7966
     26 H2          1.0053    1.8021    0.0021 H         1 <0>         0.0527
     27 H3         -0.5445    1.7859   -0.8732 H         1 <0>         0.0965
     28 H4         -0.5275    1.7763    0.9067 H         1 <0>         0.0511
     29 H5          1.1527    1.2226    2.0056 H         1 <0>         0.1288
     30 H6          2.2835    0.1405    3.8929 H         1 <0>         0.1209
     31 H7          0.2283   -2.5882    0.3111 H         1 <0>         0.1314
     32 H8          2.5792   -4.8948    4.2139 H         1 <0>         0.1713
     33 H9          1.0491   -6.0880    2.4226 H         1 <0>         0.0719
     34 H10         0.1737   -5.0441    1.2770 H         1 <0>         0.0726
     35 H11         2.2669   -4.6972   -0.0063 H         1 <0>         0.0674
     36 H12         3.1422   -5.7411    1.1393 H         1 <0>         0.0653
     37 H13         1.6053  -10.3585   -3.2918 H         1 <0>         0.1224
     38 H14         3.0379  -11.1848   -5.1405 H         1 <0>         0.1220
     39 H15         5.7724   -8.0102   -4.3064 H         1 <0>         0.1371
     40 H16         0.9287   -7.1802    0.1364 H         1 <0>         0.3857
@<TRIPOS>BOND
     1    1    2 1
     2    1   26 1
     3    1   27 1
     4    1   28 1
     5    2    3 1
     6    3    8 ar
     7    3    4 ar
     8    4    5 ar
     9    4   29 1
    10    5    6 ar
    11    5   30 1
    12    6   11 1
    13    6    7 ar
    14    7    8 ar
    15    7    9 1
    16    8   31 1
    17    9   10 2
    18    9   13 1
    19   10   11 1
    20   10   32 1
    21   11   12 1
    22   13   14 1
    23   13   33 1
    24   13   34 1
    25   14   15 1
    26   14   35 1
    27   14   36 1
    28   15   16 1
    29   15   40 1
    30   16   17 2
    31   16   25 1
    32   17   18 1
    33   18   23 ar
    34   18   19 ar
    35   19   20 ar
    36   19   37 1
    37   20   21 ar
    38   20   38 1
    39   21   22 ar
    40   21   24 1
    41   22   23 ar
    42   22   39 1
@<TRIPOS>MOLECULE
CHEMBL133250__2
   41    43     0     0     0
SMALL
USER_CHARGES

@<TRIPOS>ATOM
      1 C1         -0.1494    1.4462    0.1131 C.3       1 <0>         0.0280
      2 O1         -0.1125    0.0178    0.0952 O.3       1 <0>        -0.3189
      3 C2          0.5131   -0.5705   -0.9592 C.ar      1 <0>         0.1038
      4 C3          1.0854    0.2182   -1.9542 C.ar      1 <0>        -0.1773
      5 C4          1.7230   -0.3610   -3.0282 C.ar      1 <0>        -0.0880
      6 C5          1.8000   -1.7464   -3.1268 C.ar      1 <0>         0.0646
      7 C6          1.2232   -2.5456   -2.1238 C.ar      1 <0>        -0.0584
      8 C7          0.5834   -1.9470   -1.0360 C.ar      1 <0>        -0.1126
      9 C8          1.4734   -3.9341   -2.5179 C.2       1 <0>        -0.1806
     10 C9          2.1517   -3.8979   -3.6758 C.2       1 <0>         0.0767
     11 N1          2.3565   -2.5999   -4.0560 N.pl3     1 <0>        -0.5930
     12 H1          2.8231   -2.3214   -4.8596 H         1 <0>         0.4179
     13 C10         1.0504   -5.1693   -1.7654 C.3       1 <0>        -0.0520
     14 C11        -0.3857   -5.5328   -2.1481 C.3       1 <0>         0.1300
     15 N2         -0.7970   -6.7336   -1.4166 N.pl3     1 <0>        -0.6921
     16 C12        -2.0493   -7.2489   -1.5983 C.cat     1 <0>         0.4960
     17 N3         -2.4337   -8.3710   -0.9146 N.pl3     1 <0>        -0.6304
     18 C13        -3.7500   -8.8214   -0.9984 C.ar      1 <0>         0.3636
     19 C14        -4.1645   -9.8881   -0.2084 C.ar      1 <0>        -0.1967
     20 C15        -5.4737  -10.3254   -0.3012 C.ar      1 <0>        -0.0225
     21 C16        -6.3276   -9.6777   -1.1851 C.ar      1 <0>        -0.1727
     22 C17        -5.8478   -8.6245   -1.9394 C.ar      1 <0>         0.1576
     23 N4         -4.5950   -8.2264   -1.8252 N.ar      1 <0>        -0.4120
     24 Br1        -8.1275  -10.2324   -1.3545 Br        1 <0>        -0.0396
     25 S1         -3.1048   -6.5142   -2.6480 S.3       1 <0>        -0.4435
     26 H2          0.8685    1.8358    0.1220 H         1 <0>         0.0540
     27 H3         -0.6689    1.8073   -0.7745 H         1 <0>         0.0548
     28 H4         -0.6759    1.7849    1.0053 H         1 <0>         0.0994
     29 H5          1.0282    1.2943   -1.8827 H         1 <0>         0.1323
     30 H6          2.1630    0.2602   -3.7943 H         1 <0>         0.1245
     31 H7          0.1428   -2.5575   -0.2617 H         1 <0>         0.1287
     32 H8          2.4861   -4.7651   -4.2258 H         1 <0>         0.1719
     33 H9          1.7144   -5.9953   -2.0202 H         1 <0>         0.0764
     34 H10         1.1034   -4.9778   -0.6936 H         1 <0>         0.0772
     35 H11        -1.0498   -4.7069   -1.8933 H         1 <0>         0.0882
     36 H12        -0.4387   -5.7243   -3.2198 H         1 <0>         0.0861
     37 H13        -1.7899   -8.8527   -0.3720 H         1 <0>         0.4085
     38 H14        -3.4736  -10.3689    0.4682 H         1 <0>         0.1408
     39 H15        -5.8239  -11.1517    0.2997 H         1 <0>         0.1475
     40 H16        -6.5075   -8.1180   -2.6283 H         1 <0>         0.1682
     41 H17        -0.1802   -7.1629   -0.8032 H         1 <0>         0.3937
@<TRIPOS>BOND
     1    1    2 1
     2    1   26 1
     3    1   27 1
     4    1   28 1
     5    2    3 1
     6    3    8 ar
     7    3    4 ar
     8    4    5 ar
     9    4   29 1
    10    5    6 ar
    11    5   30 1
    12    6   11 1
    13    6    7 ar
    14    7    8 ar
    15    7    9 1
    16    8   31 1
    17    9   10 2
    18    9   13 1
    19   10   11 1
    20   10   32 1
    21   11   12 1
    22   13   14 1
    23   13   33 1
    24   13   34 1
    25   14   15 1
    26   14   35 1
    27   14   36 1
    28   15   16 2
    29   15   41 1
    30   16   17 1
    31   16   25 1
    32   17   18 1
    33   17   37 1
    34   18   23 ar
    35   18   19 ar
    36   19   20 ar
    37   19   38 1
    38   20   21 ar
    39   20   39 1
    40   21   22 ar
    41   21   24 1
    42   22   23 ar
    43   22   40 1
@<TRIPOS>MOLECULE
CHEMBL300838
   63    66     0     0     0
SMALL
USER_CHARGES

@<TRIPOS>ATOM
      1 C1         -1.1080   -2.0246    3.6333 C.3       1 <0>        -0.1663
      2 C2         -1.0757   -2.8055    2.3180 C.3       1 <0>         0.1324
      3 C3         -1.3293   -4.2880    2.5988 C.3       1 <0>        -0.1753
      4 N1         -2.1145   -2.2938    1.4207 N.pl3     1 <0>        -0.6972
      5 C4         -1.9777   -2.4416    0.0351 C.ar      1 <0>         0.2265
      6 C5         -0.8980   -3.1341   -0.4968 C.ar      1 <0>        -0.0862
      7 C6         -0.8051   -3.2551   -1.8768 C.ar      1 <0>        -0.0750
      8 C7         -1.7795   -2.6888   -2.6733 C.ar      1 <0>         0.0770
      9 N2         -2.7966   -2.0351   -2.1424 N.ar      1 <0>        -0.4156
     10 C8         -2.9284   -1.8996   -0.8334 C.ar      1 <0>         0.3092
     11 N3         -4.0206   -1.2064   -0.3169 N.pl3     1 <0>        -0.6649
     12 C9         -3.9106    0.2203    0.0179 C.3       1 <0>         0.1204
     13 C10        -5.0073    0.9859   -0.7328 C.3       1 <0>         0.0940
     14 N4         -6.2904    0.3037   -0.5134 N.am      1 <0>        -0.6157
     15 C11        -6.4004   -1.1230   -0.8483 C.3       1 <0>         0.0853
     16 C12        -5.3053   -1.8872   -0.1028 C.3       1 <0>         0.1156
     17 C13        -7.3472    0.9745   -0.0137 C.2       1 <0>         0.5038
     18 O1         -7.2443    2.1517    0.2593 O.2       1 <0>        -0.5078
     19 C14        -8.6567    0.2617    0.2059 C.3       1 <0>         0.1350
     20 C15        -9.4562    0.1990   -1.1057 C.3       1 <0>        -0.0696
     21 C16       -10.7333    0.9530   -0.8099 C.ar      1 <0>        -0.1683
     22 C17       -11.8289    1.2243   -1.6071 C.ar      1 <0>        -0.0385
     23 C18       -12.8977    1.9488   -1.0980 C.ar      1 <0>         0.0701
     24 C19       -12.8600    2.3989    0.2153 C.ar      1 <0>        -0.0661
     25 C20       -11.7668    2.1270    1.0091 C.ar      1 <0>        -0.1650
     26 C21       -10.6889    1.3989    0.5012 C.ar      1 <0>         0.2088
     27 N5         -9.4993    1.0209    1.1337 N.pl3     1 <0>        -0.7198
     28 N6        -14.0082    2.2249   -1.9046 N.pl3     1 <0>        -1.0590
     29 S1        -15.1039    1.0300   -2.2422 S.o2      1 <0>         2.6088
     30 O2        -16.0800    1.6549   -3.0644 O.2       1 <0>        -0.9538
     31 O3        -14.3228   -0.0488   -2.7375 O.2       1 <0>        -0.9524
     32 C22       -15.8264    0.5928   -0.6368 C.3       1 <0>        -0.6701
     33 H1         -0.3351   -2.4053    4.3010 H         1 <0>         0.0866
     34 H2         -0.9273   -0.9684    3.4333 H         1 <0>         0.0673
     35 H3         -2.0845   -2.1436    4.1027 H         1 <0>         0.0671
     36 H4         -0.0992   -2.6865    1.8486 H         1 <0>         0.0913
     37 H5         -0.5564   -4.6687    3.2665 H         1 <0>         0.0810
     38 H6         -2.3058   -4.4071    3.0682 H         1 <0>         0.0668
     39 H7         -1.3063   -4.8444    1.6618 H         1 <0>         0.0597
     40 H8         -2.8971   -1.8526    1.7864 H         1 <0>         0.4153
     41 H9         -0.1480   -3.5682    0.1478 H         1 <0>         0.1719
     42 H10         0.0222   -3.7871   -2.3228 H         1 <0>         0.1852
     43 H11        -1.7090   -2.7814   -3.7470 H         1 <0>         0.2050
     44 H12        -4.0400    0.3551    1.0918 H         1 <0>         0.0813
     45 H13        -2.9319    0.5927   -0.2847 H         1 <0>         0.0919
     46 H14        -5.0659    2.0062   -0.3540 H         1 <0>         0.1118
     47 H15        -4.7786    1.0012   -1.7985 H         1 <0>         0.0725
     48 H16        -7.3791   -1.4954   -0.5457 H         1 <0>         0.1070
     49 H17        -6.2709   -1.2578   -1.9221 H         1 <0>         0.0780
     50 H18        -5.2475   -2.9063   -0.4851 H         1 <0>         0.0932
     51 H19        -5.5364   -1.9059    0.9623 H         1 <0>         0.0831
     52 H20        -8.4799   -0.7425    0.5911 H         1 <0>         0.1013
     53 H21        -8.9051    0.6856   -1.9104 H         1 <0>         0.0877
     54 H22        -9.6775   -0.8358   -1.3668 H         1 <0>         0.1002
     55 H23       -11.8533    0.8725   -2.6279 H         1 <0>         0.1362
     56 H24       -13.6895    2.9629    0.6155 H         1 <0>         0.1351
     57 H25       -11.7435    2.4793    2.0297 H         1 <0>         0.1284
     58 H26        -9.2665    1.2307    2.0517 H         1 <0>         0.4192
     59 H27       -14.1358    3.1161   -2.2657 H         1 <0>         0.4241
     60 H28       -16.3190    1.4665   -0.2100 H         1 <0>         0.1305
     61 H29       -16.5559   -0.2057   -0.7720 H         1 <0>         0.1317
     62 H30       -15.0385    0.2549    0.0363 H         1 <0>         0.1280
     63 H31        -3.4662   -1.6473   -2.7274 H         1 <0>         0.4414
@<TRIPOS>BOND
     1    1    2 1
     2    1   33 1
     3    1   34 1
     4    1   35 1
     5    2    3 1
     6    2    4 1
     7    2   36 1
     8    3   37 1
     9    3   38 1
    10    3   39 1
    11    4    5 1
    12    4   40 1
    13    5   10 ar
    14    5    6 ar
    15    6    7 ar
    16    6   41 1
    17    7    8 ar
    18    7   42 1
    19    8    9 ar
    20    8   43 1
    21    9   10 ar
    22    9   63 1
    23   10   11 1
    24   11   16 1
    25   11   12 1
    26   12   13 1
    27   12   44 1
    28   12   45 1
    29   13   14 1
    30   13   46 1
    31   13   47 1
    32   14   15 1
    33   14   17 am
    34   15   16 1
    35   15   48 1
    36   15   49 1
    37   16   50 1
    38   16   51 1
    39   17   18 2
    40   17   19 1
    41   19   27 1
    42   19   20 1
    43   19   52 1
    44   20   21 1
    45   20   53 1
    46   20   54 1
    47   21   26 ar
    48   21   22 ar
    49   22   23 ar
    50   22   55 1
    51   23   24 ar
    52   23   28 1
    53   24   25 ar
    54   24   56 1
    55   25   26 ar
    56   25   57 1
    57   26   27 1
    58   27   58 1
    59   28   29 1
    60   28   59 1
    61   29   30 2
    62   29   31 2
    63   29   32 1
    64   32   60 1
    65   32   61 1
    66   32   62 1
@<TRIPOS>MOLECULE
CHEMBL300838__1
   62    65     0     0     0
SMALL
USER_CHARGES

@<TRIPOS>ATOM
      1 C1         -1.4422   -2.8039    4.0169 C.3       1 <0>        -0.1666
      2 C2         -1.3737   -3.5092    2.6609 C.3       1 <0>         0.1333
      3 C3         -1.7047   -4.9922    2.8401 C.3       1 <0>        -0.1750
      4 N1         -2.3408   -2.9003    1.7443 N.pl3     1 <0>        -0.6976
      5 C4         -2.1372   -2.9749    0.3610 C.ar      1 <0>         0.2253
      6 C5         -1.0522   -3.6708   -0.1554 C.ar      1 <0>        -0.0898
      7 C6         -0.8919   -3.7175   -1.5337 C.ar      1 <0>        -0.0771
      8 C7         -1.8072   -3.0768   -2.3439 C.ar      1 <0>         0.0730
      9 N2         -2.8308   -2.4216   -1.8276 N.ar      1 <0>        -0.4155
     10 C8         -3.0258   -2.3552   -0.5212 C.ar      1 <0>         0.3181
     11 N3         -4.1225   -1.6574   -0.0208 N.pl3     1 <0>        -0.6656
     12 C9         -3.9904   -0.2532    0.3924 C.3       1 <0>         0.1211
     13 C10        -5.0289    0.5811   -0.3677 C.3       1 <0>         0.0937
     14 N4         -6.3389   -0.0735   -0.2440 N.am      1 <0>        -0.6211
     15 C11        -6.4710   -1.4776   -0.6572 C.3       1 <0>         0.0879
     16 C12        -5.4338   -2.3102    0.0977 C.3       1 <0>         0.1160
     17 C13        -7.4001    0.6018    0.2402 C.2       1 <0>         0.5016
     18 O1         -7.2788    1.7602    0.5784 O.2       1 <0>        -0.5074
     19 C14        -8.7373   -0.0826    0.3614 C.3       1 <0>         0.1491
     20 C15        -9.4743   -0.0554   -0.9874 C.3       1 <0>        -0.0619
     21 C16       -10.7435    0.7197   -0.7127 C.ar      1 <0>        -0.1284
     22 C17       -11.7919    1.0629   -1.5447 C.ar      1 <0>        -0.1374
     23 C18       -12.8641    1.7917   -1.0490 C.ar      1 <0>         0.2559
     24 C19       -12.8774    2.1734    0.2862 C.ar      1 <0>        -0.2125
     25 C20       -11.8312    1.8299    1.1148 C.ar      1 <0>        -0.1078
     26 C21       -10.7501    1.0972    0.6205 C.ar      1 <0>         0.0792
     27 N5         -9.6027    0.6531    1.2872 N.pl3     1 <0>        -0.7355
     28 N6        -13.9268    2.1406   -1.8909 N.2       1 <0>        -1.1028
     29 S1        -15.2040    3.0101   -1.2952 S.o2      1 <0>         2.5250
     30 O2        -15.8017    2.1593   -0.3267 O.2       1 <0>        -1.0331
     31 O3        -14.6457    4.2604   -0.9151 O.2       1 <0>        -1.0328
     32 C22       -16.3195    3.2280   -2.7090 C.3       1 <0>        -0.6368
     33 H1         -0.7227   -3.2570    4.6989 H         1 <0>         0.0850
     34 H2         -1.2064   -1.7474    3.8892 H         1 <0>         0.0675
     35 H3         -2.4464   -2.9049    4.4286 H         1 <0>         0.0680
     36 H4         -0.3695   -3.4082    2.2492 H         1 <0>         0.0899
     37 H5         -1.6558   -5.4947    1.8740 H         1 <0>         0.0594
     38 H6         -0.9851   -5.4452    3.5220 H         1 <0>         0.0792
     39 H7         -2.7088   -5.0932    3.2518 H         1 <0>         0.0674
     40 H8         -3.1221   -2.4454    2.0957 H         1 <0>         0.4169
     41 H9         -0.3493   -4.1638    0.4998 H         1 <0>         0.1701
     42 H10        -0.0586   -4.2500   -1.9678 H         1 <0>         0.1830
     43 H11        -1.6842   -3.1116   -3.4163 H         1 <0>         0.2032
     44 H12        -4.1676   -0.1692    1.4647 H         1 <0>         0.0808
     45 H13        -2.9887    0.1052    0.1554 H         1 <0>         0.0879
     46 H14        -5.0783    1.5822    0.0604 H         1 <0>         0.1102
     47 H15        -4.7491    0.6436   -1.4193 H         1 <0>         0.0678
     48 H16        -7.4727   -1.8360   -0.4202 H         1 <0>         0.1104
     49 H17        -6.2939   -1.5616   -1.7294 H         1 <0>         0.0732
     50 H18        -5.3851   -3.3100   -0.3338 H         1 <0>         0.0901
     51 H19        -5.7161   -2.3761    1.1485 H         1 <0>         0.0833
     52 H20        -8.6062   -1.1097    0.7017 H         1 <0>         0.0826
     53 H21        -8.8725    0.4549   -1.7393 H         1 <0>         0.0736
     54 H22        -9.7105   -1.0688   -1.3120 H         1 <0>         0.0849
     55 H23       -11.7768    0.7640   -2.5824 H         1 <0>         0.1097
     56 H24       -13.7097    2.7406    0.6762 H         1 <0>         0.1057
     57 H25       -11.8473    2.1293    2.1523 H         1 <0>         0.0992
     58 H26        -9.4087    0.8093    2.2246 H         1 <0>         0.4043
     59 H27       -16.6336    2.2515   -3.0779 H         1 <0>         0.1145
     60 H28       -17.1951    3.7972   -2.3967 H         1 <0>         0.1008
     61 H29       -15.8002    3.7661   -3.5020 H         1 <0>         0.1143
     62 H30        -3.4578   -1.9806   -2.4220 H         1 <0>         0.4425
@<TRIPOS>BOND
     1    1    2 1
     2    1   33 1
     3    1   34 1
     4    1   35 1
     5    2    3 1
     6    2    4 1
     7    2   36 1
     8    3   37 1
     9    3   38 1
    10    3   39 1
    11    4    5 1
    12    4   40 1
    13    5   10 ar
    14    5    6 ar
    15    6    7 ar
    16    6   41 1
    17    7    8 ar
    18    7   42 1
    19    8    9 ar
    20    8   43 1
    21    9   10 ar
    22    9   62 1
    23   10   11 1
    24   11   16 1
    25   11   12 1
    26   12   13 1
    27   12   44 1
    28   12   45 1
    29   13   14 1
    30   13   46 1
    31   13   47 1
    32   14   15 1
    33   14   17 am
    34   15   16 1
    35   15   48 1
    36   15   49 1
    37   16   50 1
    38   16   51 1
    39   17   18 2
    40   17   19 1
    41   19   27 1
    42   19   20 1
    43   19   52 1
    44   20   21 1
    45   20   53 1
    46   20   54 1
    47   21   26 ar
    48   21   22 ar
    49   22   23 ar
    50   22   55 1
    51   23   24 ar
    52   23   28 1
    53   24   25 ar
    54   24   56 1
    55   25   26 ar
    56   25   57 1
    57   26   27 1
    58   27   58 1
    59   28   29 1
    60   29   30 2
    61   29   31 2
    62   29   32 1
    63   32   59 1
    64   32   60 1
    65   32   61 1
@<TRIPOS>MOLECULE
CHEMBL300838__2
   63    66     0     0     0
SMALL
USER_CHARGES

@<TRIPOS>ATOM
      1 C1         -1.5319   -2.6419    3.8572 C.3       1 <0>        -0.1668
      2 C2         -1.4893   -3.4391    2.5520 C.3       1 <0>         0.1323
      3 C3         -1.7578   -4.9161    2.8475 C.3       1 <0>        -0.1753
      4 N1         -2.5129   -2.9306    1.6355 N.pl3     1 <0>        -0.6963
      5 C4         -2.3600   -3.0963    0.2537 C.ar      1 <0>         0.2272
      6 C5         -1.2791   -3.8034   -0.2562 C.ar      1 <0>        -0.0865
      7 C6         -1.1700   -3.9419   -1.6334 C.ar      1 <0>        -0.0750
      8 C7         -2.1300   -3.3780   -2.4489 C.ar      1 <0>         0.0756
      9 N2         -3.1485   -2.7102   -1.9387 N.ar      1 <0>        -0.4156
     10 C8         -3.2956   -2.5578   -0.6332 C.ar      1 <0>         0.3090
     11 N3         -4.3887   -1.8501   -0.1389 N.pl3     1 <0>        -0.6648
     12 C9         -4.2720   -0.4202    0.1800 C.3       1 <0>         0.1195
     13 C10        -5.3532    0.3443   -0.5936 C.3       1 <0>         0.0944
     14 N4         -6.6442   -0.3254   -0.3821 N.am      1 <0>        -0.6159
     15 C11        -6.7610   -1.7552   -0.7010 C.3       1 <0>         0.0861
     16 C12        -5.6813   -2.5185    0.0673 C.3       1 <0>         0.1150
     17 C13        -7.7020    0.3594    0.0962 C.2       1 <0>         0.5040
     18 O1         -7.5934    1.5390    0.3561 O.2       1 <0>        -0.5075
     19 C14        -9.0195   -0.3407    0.3079 C.3       1 <0>         0.1340
     20 C15        -9.0226   -1.0740    1.6591 C.3       1 <0>        -0.0680
     21 C16       -10.1489   -0.4326    2.4382 C.ar      1 <0>        -0.1700
     22 C17       -10.6223   -0.6792    3.7128 C.ar      1 <0>        -0.0383
     23 C18       -11.6876    0.0560    4.2139 C.ar      1 <0>         0.0690
     24 C19       -12.2744    1.0394    3.4284 C.ar      1 <0>        -0.0654
     25 C20       -11.8014    1.2837    2.1573 C.ar      1 <0>        -0.1650
     26 C21       -10.7296    0.5470    1.6489 C.ar      1 <0>         0.2103
     27 N5        -10.1062    0.6380    0.3993 N.pl3     1 <0>        -0.7194
     28 N6        -12.1685   -0.1930    5.5050 N.pl3     1 <0>        -1.0586
     29 S1        -11.3128    0.3305    6.8226 S.o2      1 <0>         2.6089
     30 O2        -12.0829   -0.0834    7.9428 O.2       1 <0>        -0.9537
     31 O3         -9.9977   -0.1696    6.6229 O.2       1 <0>        -0.9538
     32 C22       -11.3195    2.1399    6.6940 C.3       1 <0>        -0.6704
     33 H1         -0.7704   -3.0203    4.5391 H         1 <0>         0.0866
     34 H2         -1.3407   -1.5897    3.6467 H         1 <0>         0.0673
     35 H3         -2.5151   -2.7479    4.3157 H         1 <0>         0.0682
     36 H4         -0.5061   -3.3332    2.0935 H         1 <0>         0.0910
     37 H5         -0.9962   -5.2945    3.5294 H         1 <0>         0.0810
     38 H6         -2.7410   -5.0220    3.3060 H         1 <0>         0.0675
     39 H7         -1.7274   -5.4840    1.9176 H         1 <0>         0.0594
     40 H8         -3.2965   -2.4790    1.9861 H         1 <0>         0.4160
     41 H9         -0.5406   -4.2352    0.4029 H         1 <0>         0.1719
     42 H10        -0.3413   -4.4855   -2.0625 H         1 <0>         0.1849
     43 H11        -2.0468   -3.4843   -3.5204 H         1 <0>         0.2044
     44 H12        -4.4137   -0.2714    1.2504 H         1 <0>         0.0827
     45 H13        -3.2867   -0.0590   -0.1148 H         1 <0>         0.0919
     46 H14        -5.4088    1.3697   -0.2279 H         1 <0>         0.1119
     47 H15        -5.1113    0.3450   -1.6564 H         1 <0>         0.0720
     48 H16        -7.7462   -2.1165   -0.4062 H         1 <0>         0.1064
     49 H17        -6.6193   -1.9041   -1.7715 H         1 <0>         0.0760
     50 H18        -5.6265   -3.5426   -0.3018 H         1 <0>         0.0932
     51 H19        -5.9257   -2.5225    1.1296 H         1 <0>         0.0855
     52 H20        -9.2094   -1.0418   -0.5048 H         1 <0>         0.1022
     53 H21        -9.2174   -2.1367    1.5145 H         1 <0>         0.0985
     54 H22        -8.0729   -0.9273    2.1734 H         1 <0>         0.0871
     55 H23       -10.1628   -1.4452    4.3198 H         1 <0>         0.1355
     56 H24       -13.1035    1.6138    3.8143 H         1 <0>         0.1352
     57 H25       -12.2621    2.0495    1.5509 H         1 <0>         0.1288
     58 H26       -10.3568    1.2580   -0.3033 H         1 <0>         0.4201
     59 H27       -13.0029   -0.6721    5.6276 H         1 <0>         0.4242
     60 H28       -12.3469    2.5025    6.7251 H         1 <0>         0.1311
     61 H29       -10.7586    2.5653    7.5262 H         1 <0>         0.1315
     62 H30       -10.8569    2.4390    5.7534 H         1 <0>         0.1281
     63 H31        -3.8077   -2.3245   -2.5367 H         1 <0>         0.4408
@<TRIPOS>BOND
     1    1    2 1
     2    1   33 1
     3    1   34 1
     4    1   35 1
     5    2    3 1
     6    2    4 1
     7    2   36 1
     8    3   37 1
     9    3   38 1
    10    3   39 1
    11    4    5 1
    12    4   40 1
    13    5   10 ar
    14    5    6 ar
    15    6    7 ar
    16    6   41 1
    17    7    8 ar
    18    7   42 1
    19    8    9 ar
    20    8   43 1
    21    9   10 ar
    22    9   63 1
    23   10   11 1
    24   11   16 1
    25   11   12 1
    26   12   13 1
    27   12   44 1
    28   12   45 1
    29   13   14 1
    30   13   46 1
    31   13   47 1
    32   14   15 1
    33   14   17 am
    34   15   16 1
    35   15   48 1
    36   15   49 1
    37   16   50 1
    38   16   51 1
    39   17   18 2
    40   17   19 1
    41   19   27 1
    42   19   20 1
    43   19   52 1
    44   20   21 1
    45   20   53 1
    46   20   54 1
    47   21   26 ar
    48   21   22 ar
    49   22   23 ar
    50   22   55 1
    51   23   24 ar
    52   23   28 1
    53   24   25 ar
    54   24   56 1
    55   25   26 ar
    56   25   57 1
    57   26   27 1
    58   27   58 1
    59   28   29 1
    60   28   59 1
    61   29   30 2
    62   29   31 2
    63   29   32 1
    64   32   60 1
    65   32   61 1
    66   32   62 1
@<TRIPOS>MOLECULE
CHEMBL300838__3
   62    65     0     0     0
SMALL
USER_CHARGES

@<TRIPOS>ATOM
      1 C1         -1.4422   -2.8039    4.0169 C.3       1 <0>        -0.1674
      2 C2         -1.3737   -3.5092    2.6609 C.3       1 <0>         0.1332
      3 C3         -1.7047   -4.9922    2.8401 C.3       1 <0>        -0.1752
      4 N1         -2.3408   -2.9003    1.7443 N.pl3     1 <0>        -0.6958
      5 C4         -2.1372   -2.9749    0.3610 C.ar      1 <0>         0.2265
      6 C5         -1.0522   -3.6708   -0.1554 C.ar      1 <0>        -0.0903
      7 C6         -0.8919   -3.7175   -1.5337 C.ar      1 <0>        -0.0769
      8 C7         -1.8072   -3.0768   -2.3439 C.ar      1 <0>         0.0701
      9 N2         -2.8308   -2.4216   -1.8276 N.ar      1 <0>        -0.4155
     10 C8         -3.0258   -2.3552   -0.5212 C.ar      1 <0>         0.3178
     11 N3         -4.1225   -1.6574   -0.0208 N.pl3     1 <0>        -0.6654
     12 C9         -3.9904   -0.2532    0.3924 C.3       1 <0>         0.1195
     13 C10        -5.0289    0.5811   -0.3677 C.3       1 <0>         0.0948
     14 N4         -6.3389   -0.0735   -0.2440 N.am      1 <0>        -0.6215
     15 C11        -6.4710   -1.4776   -0.6572 C.3       1 <0>         0.0893
     16 C12        -5.4338   -2.3102    0.0977 C.3       1 <0>         0.1145
     17 C13        -7.4001    0.6018    0.2402 C.2       1 <0>         0.5018
     18 O1         -7.2788    1.7602    0.5784 O.2       1 <0>        -0.5073
     19 C14        -8.7373   -0.0826    0.3614 C.3       1 <0>         0.1478
     20 C15        -8.8024   -0.8993    1.6622 C.3       1 <0>        -0.0598
     21 C16        -9.9436   -0.2849    2.4413 C.ar      1 <0>        -0.1300
     22 C17       -10.4667   -0.6013    3.6805 C.ar      1 <0>        -0.1378
     23 C18       -11.5353    0.1229    4.1904 C.ar      1 <0>         0.2554
     24 C19       -12.0751    1.1660    3.4494 C.ar      1 <0>        -0.2115
     25 C20       -11.5525    1.4799    2.2135 C.ar      1 <0>        -0.1080
     26 C21       -10.4772    0.7545    1.6965 C.ar      1 <0>         0.0812
     27 N5         -9.8080    0.9109    0.4774 N.pl3     1 <0>        -0.7356
     28 N6        -12.0666   -0.1968    5.4456 N.2       1 <0>        -1.1033
     29 S1        -13.3416    0.6699    6.0502 S.o2      1 <0>         2.5250
     30 O2        -12.8367    1.9873    6.2194 O.2       1 <0>        -1.0328
     31 O3        -14.4124    0.4143    5.1517 O.2       1 <0>        -1.0326
     32 C22       -13.6895   -0.0782    7.6657 C.3       1 <0>        -0.6369
     33 H1         -0.7227   -3.2570    4.6989 H         1 <0>         0.0851
     34 H2         -1.2064   -1.7474    3.8892 H         1 <0>         0.0676
     35 H3         -2.4464   -2.9049    4.4286 H         1 <0>         0.0699
     36 H4         -0.3695   -3.4082    2.2492 H         1 <0>         0.0894
     37 H5         -1.6558   -5.4947    1.8740 H         1 <0>         0.0588
     38 H6         -0.9851   -5.4452    3.5220 H         1 <0>         0.0793
     39 H7         -2.7088   -5.0932    3.2518 H         1 <0>         0.0688
     40 H8         -3.1221   -2.4454    2.0957 H         1 <0>         0.4181
     41 H9         -0.3493   -4.1638    0.4998 H         1 <0>         0.1702
     42 H10        -0.0586   -4.2500   -1.9678 H         1 <0>         0.1825
     43 H11        -1.6842   -3.1116   -3.4163 H         1 <0>         0.2022
     44 H12        -4.1676   -0.1692    1.4647 H         1 <0>         0.0834
     45 H13        -2.9887    0.1052    0.1554 H         1 <0>         0.0878
     46 H14        -5.0783    1.5822    0.0604 H         1 <0>         0.1101
     47 H15        -4.7491    0.6436   -1.4193 H         1 <0>         0.0663
     48 H16        -7.4727   -1.8360   -0.4202 H         1 <0>         0.1100
     49 H17        -6.2939   -1.5616   -1.7294 H         1 <0>         0.0699
     50 H18        -5.3851   -3.3100   -0.3338 H         1 <0>         0.0902
     51 H19        -5.7161   -2.3761    1.1485 H         1 <0>         0.0877
     52 H20        -8.9110   -0.7269   -0.5004 H         1 <0>         0.0834
     53 H21        -9.0117   -1.9464    1.4435 H         1 <0>         0.0842
     54 H22        -7.8690   -0.8053    2.2172 H         1 <0>         0.0718
     55 H23       -10.0437   -1.4136    4.2529 H         1 <0>         0.1088
     56 H24       -12.9067    1.7321    3.8423 H         1 <0>         0.1058
     57 H25       -11.9768    2.2920    1.6417 H         1 <0>         0.0996
     58 H26       -10.0217    1.5791   -0.1925 H         1 <0>         0.4052
     59 H27       -12.8081    0.0043    8.3017 H         1 <0>         0.1141
     60 H28       -14.5255    0.4412    8.1342 H         1 <0>         0.1009
     61 H29       -13.9440   -1.1296    7.5320 H         1 <0>         0.1144
     62 H30        -3.4578   -1.9806   -2.4220 H         1 <0>         0.4412
@<TRIPOS>BOND
     1    1    2 1
     2    1   33 1
     3    1   34 1
     4    1   35 1
     5    2    3 1
     6    2    4 1
     7    2   36 1
     8    3   37 1
     9    3   38 1
    10    3   39 1
    11    4    5 1
    12    4   40 1
    13    5   10 ar
    14    5    6 ar
    15    6    7 ar
    16    6   41 1
    17    7    8 ar
    18    7   42 1
    19    8    9 ar
    20    8   43 1
    21    9   10 ar
    22    9   62 1
    23   10   11 1
    24   11   16 1
    25   11   12 1
    26   12   13 1
    27   12   44 1
    28   12   45 1
    29   13   14 1
    30   13   46 1
    31   13   47 1
    32   14   15 1
    33   14   17 am
    34   15   16 1
    35   15   48 1
    36   15   49 1
    37   16   50 1
    38   16   51 1
    39   17   18 2
    40   17   19 1
    41   19   27 1
    42   19   20 1
    43   19   52 1
    44   20   21 1
    45   20   53 1
    46   20   54 1
    47   21   26 ar
    48   21   22 ar
    49   22   23 ar
    50   22   55 1
    51   23   24 ar
    52   23   28 1
    53   24   25 ar
    54   24   56 1
    55   25   26 ar
    56   25   57 1
    57   26   27 1
    58   27   58 1
    59   28   29 1
    60   29   30 2
    61   29   31 2
    62   29   32 1
    63   32   59 1
    64   32   60 1
    65   32   61 1
@<TRIPOS>MOLECULE
CHEMBL298821
   49    51     0     0     0
SMALL
USER_CHARGES

@<TRIPOS>ATOM
      1 C1         -0.0458    0.8982   -0.1308 C.3       1 <0>        -0.1448
      2 C2          0.0345   -0.5721    0.2849 C.3       1 <0>        -0.0650
      3 C3          0.6841   -0.6759    1.6408 C.2       1 <0>        -0.1794
      4 C4          2.0820   -0.7036    1.7599 C.2       1 <0>         0.5552
      5 O1          2.7835   -0.6433    0.7644 O.2       1 <0>        -0.4959
      6 N1          2.6447   -0.7969    2.9807 N.am      1 <0>        -0.6556
      7 H1          3.6109   -0.8162    3.0644 H         1 <0>         0.4342
      8 C5          1.8786   -0.8631    4.0847 C.2       1 <0>         0.6982
      9 O2          2.4073   -0.9464    5.1763 O.2       1 <0>        -0.5290
     10 N2          0.5358   -0.8380    3.9989 N.am      1 <0>        -0.5176
     11 C6         -0.0805   -0.7389    2.7734 C.2       1 <0>         0.1293
     12 S1         -1.8386   -0.6993    2.6628 S.3       1 <0>         0.0741
     13 C7         -2.3342   -2.3116    3.1724 C.ar      1 <0>        -0.1166
     14 C8         -1.3775   -3.2878    3.4211 C.ar      1 <0>        -0.1284
     15 C9         -1.7694   -4.5504    3.8203 C.ar      1 <0>        -0.0581
     16 C10        -3.1124   -4.8435    3.9726 C.ar      1 <0>        -0.1128
     17 C11        -4.0673   -3.8741    3.7254 C.ar      1 <0>        -0.0594
     18 C12        -3.6821   -2.6077    3.3319 C.ar      1 <0>        -0.0952
     19 C13        -5.5295   -4.1984    3.8917 C.3       1 <0>        -0.1183
     20 C14        -0.7325   -5.6102    4.0899 C.3       1 <0>        -0.1198
     21 C15        -0.2737   -0.9111    5.2177 C.3       1 <0>         0.1363
     22 C16        -0.4331    0.4703    5.7985 C.2       1 <0>        -0.1673
     23 C17        -1.6482    0.9580    6.0298 C.2       1 <0>        -0.0381
     24 C18        -1.8083    2.3465    6.4890 C.2       1 <0>        -0.1263
     25 C19        -2.9592    3.0315    6.7862 C.2       1 <0>        -0.1403
     26 C20        -2.8605    4.3400    7.2026 C.2       1 <0>        -0.1583
     27 C21        -1.6325    4.9112    7.3063 C.2       1 <0>        -0.1703
     28 S2         -0.5550    3.5763    6.8122 S.3       1 <0>         0.0527
     29 H2          0.9590    1.3183   -0.1762 H         1 <0>         0.0581
     30 H3         -0.5156    0.9733   -1.1115 H         1 <0>         0.0675
     31 H4         -0.6379    1.4503    0.5990 H         1 <0>         0.0540
     32 H5         -0.9702   -0.9922    0.3303 H         1 <0>         0.0930
     33 H6          0.6266   -1.1242   -0.4449 H         1 <0>         0.0877
     34 H7         -0.3286   -3.0597    3.3021 H         1 <0>         0.1172
     35 H8         -3.4161   -5.8317    4.2849 H         1 <0>         0.1291
     36 H9         -4.4281   -1.8497    3.1441 H         1 <0>         0.1324
     37 H10        -5.8360   -3.9805    4.9148 H         1 <0>         0.0759
     38 H11        -6.1167   -3.5942    3.2001 H         1 <0>         0.0708
     39 H12        -5.6937   -5.2551    3.6806 H         1 <0>         0.0712
     40 H13        -0.3708   -5.5127    5.1135 H         1 <0>         0.0752
     41 H14        -1.1768   -6.5962    3.9539 H         1 <0>         0.0725
     42 H15         0.1002   -5.4883    3.3971 H         1 <0>         0.0677
     43 H16        -1.2552   -1.3200    4.9781 H         1 <0>         0.1078
     44 H17         0.2209   -1.5558    5.9443 H         1 <0>         0.1150
     45 H18         0.4396    1.0641    6.0268 H         1 <0>         0.1213
     46 H19        -2.5176    0.3349    5.8805 H         1 <0>         0.1390
     47 H20        -3.9235    2.5538    6.6950 H         1 <0>         0.1369
     48 H21        -3.7485    4.9055    7.4434 H         1 <0>         0.1366
     49 H22        -1.3741    5.9140    7.6130 H         1 <0>         0.1875
@<TRIPOS>BOND
     1    1    2 1
     2    1   29 1
     3    1   30 1
     4    1   31 1
     5    2    3 1
     6    2   32 1
     7    2   33 1
     8    3   11 2
     9    3    4 1
    10    4    5 2
    11    4    6 am
    12    6    7 1
    13    6    8 am
    14    8    9 2
    15    8   10 am
    16   10   11 1
    17   10   21 1
    18   11   12 1
    19   12   13 1
    20   13   18 ar
    21   13   14 ar
    22   14   15 ar
    23   14   34 1
    24   15   16 ar
    25   15   20 1
    26   16   17 ar
    27   16   35 1
    28   17   18 ar
    29   17   19 1
    30   18   36 1
    31   19   37 1
    32   19   38 1
    33   19   39 1
    34   20   40 1
    35   20   41 1
    36   20   42 1
    37   21   22 1
    38   21   43 1
    39   21   44 1
    40   22   23 2
    41   22   45 1
    42   23   24 1
    43   23   46 1
    44   24   28 1
    45   24   25 2
    46   25   26 1
    47   25   47 1
    48   26   27 2
    49   26   48 1
    50   27   28 1
    51   27   49 1
@<TRIPOS>MOLECULE
CHEMBL107342
   42    45     0     0     0
SMALL
USER_CHARGES

@<TRIPOS>ATOM
      1 C1         -0.0210    1.3983    0.0176 C.ar      1 <0>        -0.1371
      2 C2          1.1660    2.1127    0.0104 C.ar      1 <0>        -0.0626
      3 C3          2.3816    1.4564   -0.0081 C.ar      1 <0>        -0.1512
      4 C4          2.4163    0.0714   -0.0191 C.ar      1 <0>         0.1683
      5 C5          1.2127   -0.6541   -0.0113 C.ar      1 <0>        -0.0867
      6 C6         -0.0050    0.0182    0.0069 C.ar      1 <0>        -0.0448
      7 C7          1.2911   -2.1252   -0.0240 C.2       1 <0>         0.1165
      8 C8          0.3593   -3.1181   -0.0219 C.2       1 <0>        -0.2186
      9 C9          1.0375   -4.3388   -0.0396 C.2       1 <0>         0.0811
     10 N1          2.3250   -4.1047   -0.0520 N.2       1 <0>        -0.2352
     11 N2          2.5290   -2.7180   -0.0427 N.am      1 <0>        -0.3652
     12 C10         3.6443   -1.9683   -0.0493 C.2       1 <0>         0.7266
     13 O1          4.7223   -2.5297   -0.0659 O.2       1 <0>        -0.5091
     14 N3          3.6191   -0.6254   -0.0382 N.am      1 <0>        -0.5284
     15 C11         4.8814    0.1181   -0.0464 C.3       1 <0>         0.1039
     16 C12         5.3370    0.3654    1.3931 C.3       1 <0>         0.1081
     17 N4          6.5993    1.1089    1.3849 N.pl3     1 <0>        -0.6803
     18 C13         7.1930    1.4416    2.5482 C.2       1 <0>         0.5223
     19 S1          6.4721    0.9952    4.0355 S.2       1 <0>        -0.4903
     20 N5          8.3543    2.1256    2.5406 N.pl3     1 <0>        -0.6163
     21 C14         8.9126    2.5640    3.7400 C.ar      1 <0>         0.3531
     22 C15        10.0526    3.3600    3.7186 C.ar      1 <0>        -0.1914
     23 C16        10.5968    3.7886    4.9161 C.ar      1 <0>        -0.0240
     24 C17         9.9792    3.4044    6.0997 C.ar      1 <0>        -0.1678
     25 C18         8.8488    2.6122    6.0462 C.ar      1 <0>         0.1562
     26 N6          8.3496    2.2233    4.8883 N.ar      1 <0>        -0.4038
     27 Br1        10.6788    3.9597    7.7665 Br        1 <0>        -0.0369
     28 H1         -0.9641    1.9243    0.0362 H         1 <0>         0.1381
     29 H2          1.1409    3.1924    0.0189 H         1 <0>         0.1380
     30 H3          3.3020    2.0212   -0.0143 H         1 <0>         0.1372
     31 H4         -0.9319   -0.5362    0.0129 H         1 <0>         0.1423
     32 H5         -0.7125   -2.9854   -0.0085 H         1 <0>         0.1678
     33 H6          0.5756   -5.3151   -0.0423 H         1 <0>         0.2081
     34 H7          5.6402   -0.4602   -0.5735 H         1 <0>         0.1115
     35 H8          4.7371    1.0735   -0.5510 H         1 <0>         0.1067
     36 H9          4.5781    0.9437    1.9201 H         1 <0>         0.0975
     37 H10         5.4813   -0.5899    1.8977 H         1 <0>         0.0981
     38 H11         7.0077    1.3618    0.5422 H         1 <0>         0.3978
     39 H12         8.8015    2.3127    1.7004 H         1 <0>         0.4109
     40 H13        10.5073    3.6397    2.7797 H         1 <0>         0.1419
     41 H14        11.4818    4.4073    4.9305 H         1 <0>         0.1489
     42 H15         8.3650    2.3108    6.9635 H         1 <0>         0.1689
@<TRIPOS>BOND
     1    1    6 ar
     2    1    2 ar
     3    1   28 1
     4    2    3 ar
     5    2   29 1
     6    3    4 ar
     7    3   30 1
     8    4   14 1
     9    4    5 ar
    10    5    6 ar
    11    5    7 1
    12    6   31 1
    13    7   11 1
    14    7    8 2
    15    8    9 1
    16    8   32 1
    17    9   10 2
    18    9   33 1
    19   10   11 1
    20   11   12 am
    21   12   13 2
    22   12   14 am
    23   14   15 1
    24   15   16 1
    25   15   34 1
    26   15   35 1
    27   16   17 1
    28   16   36 1
    29   16   37 1
    30   17   18 1
    31   17   38 1
    32   18   19 2
    33   18   20 1
    34   20   21 1
    35   20   39 1
    36   21   26 ar
    37   21   22 ar
    38   22   23 ar
    39   22   40 1
    40   23   24 ar
    41   23   41 1
    42   24   25 ar
    43   24   27 1
    44   25   26 ar
    45   25   42 1
@<TRIPOS>MOLECULE
CHEMBL145049
   46    50     0     0     0
SMALL
USER_CHARGES

@<TRIPOS>ATOM
      1 C1         -0.0167    1.3786    0.0096 C.ar      1 <0>        -0.1761
      2 C2          1.1695    2.0894    0.0021 C.ar      1 <0>        -0.0719
      3 C3          2.3774    1.4200   -0.0130 C.ar      1 <0>        -0.1923
      4 C4          2.3998    0.0311   -0.0206 C.ar      1 <0>         0.2138
      5 C5          1.2064   -0.6798   -0.0130 C.ar      1 <0>        -0.1972
      6 C6          0.0021   -0.0041    0.0020 C.ar      1 <0>        -0.0721
      7 N1          3.6196   -0.6492   -0.0363 N.pl3     1 <0>        -0.7441
      8 C7          3.6414   -2.1140   -0.0443 C.3       1 <0>         0.1707
      9 C8          5.0695   -2.5950   -0.0611 C.ar      1 <0>        -0.0762
     10 C9          5.6646   -3.0058   -1.2457 C.ar      1 <0>        -0.1354
     11 C10         6.9747   -3.4377   -1.2284 C.ar      1 <0>         0.1109
     12 N2          7.6691   -3.4483   -0.1064 N.ar      1 <0>        -0.4620
     13 C11         7.1448   -3.0568    1.0462 C.ar      1 <0>         0.3617
     14 C12         5.8202   -2.6310    1.1097 C.ar      1 <0>         0.1080
     15 N3          5.2139   -2.2888    2.3156 N.am      1 <0>        -0.6431
     16 C13         5.7573   -1.6042    3.3106 C.2       1 <0>         0.5805
     17 O1          5.0589   -1.3858    4.2815 O.2       1 <0>        -0.5201
     18 C14         7.1287   -1.0879    3.3417 C.ar      1 <0>        -0.1970
     19 C15         7.3917    0.1703    3.8964 C.ar      1 <0>        -0.0029
     20 C16         8.7039    0.6073    3.9440 C.ar      1 <0>        -0.1880
     21 C17         9.7096   -0.2054    3.4524 C.ar      1 <0>         0.1484
     22 N4          9.4387   -1.3813    2.9208 N.ar      1 <0>        -0.4939
     23 C18         8.1979   -1.8370    2.8285 C.ar      1 <0>         0.4130
     24 N5          7.9494   -3.0473    2.1860 N.pl3     1 <0>        -0.5550
     25 C19         8.5299   -4.2938    2.6914 C.3       1 <0>         0.1022
     26 C20         9.2310   -4.2465    4.0505 C.3       1 <0>        -0.1829
     27 C21        10.0554   -4.3823    2.7688 C.3       1 <0>        -0.1796
     28 H1         -0.9598    1.9046    0.0260 H         1 <0>         0.1187
     29 H2          1.1513    3.1692    0.0077 H         1 <0>         0.1211
     30 H3          3.3034    1.9757   -0.0192 H         1 <0>         0.1174
     31 H4          1.2204   -1.7597   -0.0193 H         1 <0>         0.1191
     32 H5         -0.9261   -0.5561    0.0079 H         1 <0>         0.1210
     33 H6          4.4523   -0.1517   -0.0419 H         1 <0>         0.3996
     34 H7          3.1419   -2.4897    0.8486 H         1 <0>         0.0688
     35 H8          3.1243   -2.4802   -0.9312 H         1 <0>         0.0820
     36 H9          5.1079   -2.9878   -2.1711 H         1 <0>         0.1498
     37 H10         7.4381   -3.7712   -2.1452 H         1 <0>         0.1698
     38 H11         4.2977   -2.5821    2.4397 H         1 <0>         0.4121
     39 H12         6.5898    0.7852    4.2776 H         1 <0>         0.1491
     40 H13         8.9409    1.5746    4.3618 H         1 <0>         0.1498
     41 H14        10.7351    0.1294    3.5046 H         1 <0>         0.1687
     42 H15         7.9853   -5.2031    2.4371 H         1 <0>         0.1282
     43 H16         9.2603   -3.2879    4.5686 H         1 <0>         0.0917
     44 H17         9.1476   -5.1247    4.6907 H         1 <0>         0.1039
     45 H18        10.5144   -5.3498    2.5657 H         1 <0>         0.0976
     46 H19        10.6271   -3.5130    2.4437 H         1 <0>         0.1121
@<TRIPOS>BOND
     1    1    6 ar
     2    1    2 ar
     3    1   28 1
     4    2    3 ar
     5    2   29 1
     6    3    4 ar
     7    3   30 1
     8    4    5 ar
     9    4    7 1
    10    5    6 ar
    11    5   31 1
    12    6   32 1
    13    7    8 1
    14    7   33 1
    15    8    9 1
    16    8   34 1
    17    8   35 1
    18    9   14 ar
    19    9   10 ar
    20   10   11 ar
    21   10   36 1
    22   11   12 ar
    23   11   37 1
    24   12   13 ar
    25   13   24 1
    26   13   14 ar
    27   14   15 1
    28   15   16 am
    29   15   38 1
    30   16   17 2
    31   16   18 1
    32   18   23 ar
    33   18   19 ar
    34   19   20 ar
    35   19   39 1
    36   20   21 ar
    37   20   40 1
    38   21   22 ar
    39   21   41 1
    40   22   23 ar
    41   23   24 1
    42   24   25 1
    43   25   27 1
    44   25   26 1
    45   25   42 1
    46   26   27 1
    47   26   43 1
    48   26   44 1
    49   27   45 1
    50   27   46 1
@<TRIPOS>MOLECULE
CHEMBL88966
   35    36     0     0     0
SMALL
USER_CHARGES

@<TRIPOS>ATOM
      1 C1         -0.0176    1.3737   -0.0029 C.ar      1 <0>        -0.1441
      2 C2          1.1693    2.0879   -0.0119 C.ar      1 <0>        -0.0556
      3 C3          2.3832    1.4270   -0.0272 C.ar      1 <0>        -0.1683
      4 C4          2.4213    0.0448   -0.0336 C.ar      1 <0>         0.1586
      5 C5          1.2244   -0.6837   -0.0240 C.ar      1 <0>        -0.2090
      6 C6          0.0012   -0.0038   -0.0086 C.ar      1 <0>        -0.0460
      7 C7          1.2534   -2.1532   -0.0312 C.2       1 <0>         0.3972
      8 O1          2.3154   -2.7387   -0.0454 O.2       1 <0>        -0.4289
      9 C8         -0.0365   -2.9323   -0.0209 C.3       1 <0>        -0.1761
     10 C9          0.2726   -4.4307   -0.0312 C.3       1 <0>         0.1462
     11 N1         -0.9814   -5.1881   -0.0212 N.am      1 <0>        -0.7434
     12 C10        -0.9548   -6.5356   -0.0277 C.2       1 <0>         0.6927
     13 O2          0.1098   -7.1226   -0.0420 O.2       1 <0>        -0.5171
     14 N2         -2.1084   -7.2324   -0.0185 N.am      1 <0>        -0.6681
     15 C11        -2.0846   -8.6218   -0.1323 C.ar      1 <0>         0.3929
     16 C12        -3.2799   -9.3255   -0.2286 C.ar      1 <0>        -0.2043
     17 C13        -3.2424  -10.7038   -0.3415 C.ar      1 <0>        -0.0156
     18 C14        -2.0045  -11.3341   -0.3543 C.ar      1 <0>        -0.1834
     19 C15        -0.8568  -10.5717   -0.2546 C.ar      1 <0>         0.1718
     20 N3         -0.9243   -9.2579   -0.1531 N.ar      1 <0>        -0.4658
     21 Br1        -1.8917  -13.2156   -0.5058 Br        1 <0>        -0.0334
     22 F1          3.6080   -0.6007   -0.0494 F         1 <0>        -0.1153
     23 H1         -0.9612    1.8987    0.0132 H         1 <0>         0.1382
     24 H2          1.1460    3.1677   -0.0074 H         1 <0>         0.1399
     25 H3          3.3039    1.9915   -0.0345 H         1 <0>         0.1439
     26 H4         -0.9258   -0.5578   -0.0012 H         1 <0>         0.1420
     27 H5         -0.6035   -2.6844    0.8765 H         1 <0>         0.1093
     28 H6         -0.6228   -2.6762   -0.9034 H         1 <0>         0.1093
     29 H7          0.8396   -4.6785   -0.9285 H         1 <0>         0.0782
     30 H8          0.8589   -4.6868    0.8513 H         1 <0>         0.0783
     31 H9         -1.8307   -4.7198   -0.0098 H         1 <0>         0.3965
     32 H10        -2.9553   -6.7673    0.0673 H         1 <0>         0.4156
     33 H11        -4.2251   -8.8030   -0.2151 H         1 <0>         0.1458
     34 H12        -4.1547  -11.2767   -0.4176 H         1 <0>         0.1493
     35 H13         0.1081  -11.0569   -0.2641 H         1 <0>         0.1688
@<TRIPOS>BOND
     1    1    6 ar
     2    1    2 ar
     3    1   23 1
     4    2    3 ar
     5    2   24 1
     6    3    4 ar
     7    3   25 1
     8    4    5 ar
     9    4   22 1
    10    5    6 ar
    11    5    7 1
    12    6   26 1
    13    7    8 2
    14    7    9 1
    15    9   10 1
    16    9   27 1
    17    9   28 1
    18   10   11 1
    19   10   29 1
    20   10   30 1
    21   11   12 am
    22   11   31 1
    23   12   13 2
    24   12   14 am
    25   14   15 1
    26   14   32 1
    27   15   20 ar
    28   15   16 ar
    29   16   17 ar
    30   16   33 1
    31   17   18 ar
    32   17   34 1
    33   18   19 ar
    34   18   21 1
    35   19   20 ar
    36   19   35 1
