@<TRIPOS>MOLECULE
3LAN-KBT
 49 50 0 0 0
SMALL
SF_CHARGES


@<TRIPOS>ATOM
1    C         6.6540   10.2910   16.0940  C.3        1 SUBUNIT     -0.0617
2    C         6.0340    9.5920   17.3160  C.3        1 SUBUNIT     -0.0531
3    C         5.6690    8.1410   16.9450  C.3        1 SUBUNIT     -0.0969
4    C         7.0190   11.7460   16.4800  C.3        1 SUBUNIT      0.1451
5    N         8.2520   12.2250   15.7100  N.am       1 SUBUNIT     -0.4343
6    C         9.5730   12.1940   16.2580  C.2        1 SUBUNIT      0.0856
7    C         9.6430   11.6580   17.6840  C.2        1 SUBUNIT      0.5041
8    O         9.4480   10.4590   17.8200  O.2        1 SUBUNIT     -0.5341
9    C         9.9010   12.5270   18.9080  C.2        1 SUBUNIT     -0.0286
10   C         9.8790   11.9150   20.1960  C.2        1 SUBUNIT     -0.1133
11   C        10.0890   12.7150   21.3590  C.2        1 SUBUNIT      0.0242
12   C        10.0320   12.1070   22.6320  C.1        1 SUBUNIT      0.3277
13   N         9.9510   11.6150   23.6670  N.1        1 SUBUNIT     -0.4728
14   C        10.3330   14.1290   21.2550  C.2        1 SUBUNIT     -0.1132
15   C        10.3650   14.7480   19.9670  C.2        1 SUBUNIT     -0.0332
16   C        10.6220   16.2500   19.8160  C.3        1 SUBUNIT     -0.0663
17   C        10.1410   13.9510   18.8060  C.2        1 SUBUNIT     -0.1081
18   C        10.6870   12.6420   15.5240  C.2        1 SUBUNIT     -0.0822
19   C        12.1430   12.6460   16.0310  C.3        1 SUBUNIT      0.0152
20   C        12.7560   14.0890   16.0320  C.3        1 SUBUNIT     -0.1019
21   C        13.0140   11.6640   15.1560  C.3        1 SUBUNIT     -0.1019
22   C        10.3390   13.1470   14.1140  C.2        1 SUBUNIT      0.6676
23   O        11.1820   13.5750   13.3420  O.2        1 SUBUNIT     -0.5460
24   N         9.0530   13.1270   13.7110  N.pl3      1 SUBUNIT     -0.5652
25   C         8.0270   12.6800   14.4650  C.2        1 SUBUNIT      0.8177
26   O         6.9020   12.7200   13.9650  O.2        1 SUBUNIT     -0.5561
27   H         7.5566    9.7540   15.7841  H          1 SUBUNIT      0.0564
28   H         5.9319   10.2977   15.2708  H          1 SUBUNIT      0.0564
29   H         6.7558    9.5884   18.1394  H          1 SUBUNIT      0.0538
30   H         5.1308   10.1290   17.6241  H          1 SUBUNIT      0.0538
31   H         4.9475    8.1161   16.1217  H          1 SUBUNIT      0.0521
32   H         5.2245    7.6178   17.7981  H          1 SUBUNIT      0.0521
33   H         6.5563    7.5810   16.6319  H          1 SUBUNIT      0.0521
34   H         6.1758   12.4038   16.2450  H          1 SUBUNIT      0.0307
35   H         7.2305   11.7921   17.5534  H          1 SUBUNIT      0.0307
36   H         9.7052   10.8573   20.2899  H          1 SUBUNIT      0.1036
37   H        10.4909   14.7203   22.1400  H          1 SUBUNIT      0.1027
38   H         9.8561   16.8335   20.3375  H          1 SUBUNIT      0.0410
39   H        10.6109   16.5460   18.7618  H          1 SUBUNIT      0.0410
40   H        11.5966   16.5252   20.2326  H          1 SUBUNIT      0.0410
41   H        10.1521   14.4242   17.8397  H          1 SUBUNIT      0.1005
42   H        12.1307   12.3007   17.0701  H          1 SUBUNIT      0.0357
43   H        12.7581   14.5151   15.0233  H          1 SUBUNIT      0.0439
44   H        13.7893   14.0761   16.3941  H          1 SUBUNIT      0.0439
45   H        12.1808   14.7592   16.6793  H          1 SUBUNIT      0.0439
46   H        12.6279   10.6409   15.2124  H          1 SUBUNIT      0.0439
47   H        14.0539   11.6506   15.4987  H          1 SUBUNIT      0.0439
48   H        13.0102   11.9677   14.1040  H          1 SUBUNIT      0.0439
49   H         8.8446   13.4684   12.7858  H          1 SUBUNIT      0.3152
@<TRIPOS>BOND
     1    1    2 1
     2    1    4 1
     3    2    3 1
     4    4    5 1
     5    5    6 1
     6    5   25 1
     7    6    7 1
     8    6   18 2
     9    7    8 2
    10    7    9 1
    11    9   10 2
    12    9   17 1
    13   10   11 1
    14   11   12 1
    15   11   14 2
    16   12   13 3
    17   14   15 1
    18   15   16 1
    19   15   17 2
    20   18   19 1
    21   18   22 1
    22   19   20 1
    23   19   21 1
    24   22   23 2
    25   22   24 1
    26   24   25 1
    27   25   26 2
    28    1   27 1
    29    1   28 1
    30    2   29 1
    31    2   30 1
    32    3   31 1
    33    3   32 1
    34    3   33 1
    35    4   34 1
    36    4   35 1
    37   10   36 1
    38   14   37 1
    39   16   38 1
    40   16   39 1
    41   16   40 1
    42   17   41 1
    43   19   42 1
    44   20   43 1
    45   20   44 1
    46   20   45 1
    47   21   46 1
    48   21   47 1
    49   21   48 1
    50   24   49 1
