@<TRIPOS>MOLECULE
1XL2-189
 85 88 0 0 0
SMALL
SF_CHARGES


@<TRIPOS>ATOM
1    C        26.0680   -1.1390   19.7510  C.2        1 SUBUNIT     -0.0860
2    C        24.7160   -0.8240   19.9140  C.2        1 SUBUNIT     -0.0963
3    C        23.7410   -1.6060   19.2910  C.2        1 SUBUNIT     -0.1010
4    C        24.1330   -2.6800   18.4860  C.2        1 SUBUNIT     -0.0653
5    S        22.8810   -3.6740   17.6700  S.o2       1 SUBUNIT      1.3136
6    O        21.6560   -3.3080   18.4110  O.2        1 SUBUNIT     -0.6203
7    O        23.3830   -5.0300   17.8990  O.2        1 SUBUNIT     -0.6203
8    N        22.7330   -3.4390   16.0970  N.pl3      1 SUBUNIT     -0.5062
9    C        22.5800   -2.0850   15.5420  C.3        1 SUBUNIT      0.1493
10   C        21.2000   -1.5260   15.9860  C.3        1 SUBUNIT     -0.0447
11   C        20.1220   -2.2850   15.1680  C.3        1 SUBUNIT     -0.0443
12   C        18.7420   -1.9770   15.7650  C.3        1 SUBUNIT      0.1490
13   N        18.5820   -2.6080   17.0740  N.am       1 SUBUNIT     -0.4683
14   C        18.6720   -1.8320   18.0830  C.2        1 SUBUNIT      0.6291
15   O        18.6090   -0.6030   17.9570  O.2        1 SUBUNIT     -0.5413
16   C        18.9710   -2.2630   19.5060  C.3        1 SUBUNIT      0.1887
17   O        18.5740   -1.1800   20.3460  O.3        1 SUBUNIT     -0.3897
18   C        18.1400   -1.4550   21.6290  C.2        1 SUBUNIT      0.1506
19   C        19.0010   -1.1100   22.6860  C.2        1 SUBUNIT     -0.0429
20   C        20.3470   -0.4540   22.3950  C.3        1 SUBUNIT     -0.0616
21   C        18.5560   -1.2230   24.0000  C.2        1 SUBUNIT     -0.0983
22   C        17.4160   -1.9710   24.3020  C.2        1 SUBUNIT     -0.0951
23   C        16.5750   -2.3710   23.2620  C.2        1 SUBUNIT     -0.0983
24   C        16.9230   -2.0620   21.9370  C.2        1 SUBUNIT     -0.0429
25   C        15.9140   -2.4450   20.8570  C.3        1 SUBUNIT     -0.0616
26   C        20.2550   -1.6010   13.7960  C.3        1 SUBUNIT      0.1378
27   N        20.4910   -0.1720   14.1090  N.4        1 SUBUNIT     -0.3880
28   C        21.0770   -0.0800   15.4540  C.3        1 SUBUNIT      0.1362
29   C        25.4790   -2.9990   18.3130  C.2        1 SUBUNIT     -0.1010
30   C        26.4500   -2.2280   18.9650  C.2        1 SUBUNIT     -0.0963
31   C        21.3860   -5.8570   14.9790  C.3        1 SUBUNIT     -0.1014
32   C        22.4450   -5.0190   14.2330  C.3        1 SUBUNIT     -0.0310
33   C        23.4340   -4.3570   15.1980  C.3        1 SUBUNIT      0.1463
34   C        23.1790   -5.9100   13.2320  C.3        1 SUBUNIT     -0.1014
35   C        18.4000   -4.0190   17.2860  C.3        1 SUBUNIT      0.1785
36   C        17.0300   -4.3640   17.8750  C.2        1 SUBUNIT     -0.0466
37   C        16.9020   -5.4980   18.6830  C.2        1 SUBUNIT     -0.1041
38   C        15.6710   -5.8380   19.2510  C.2        1 SUBUNIT     -0.1011
39   C        14.5590   -5.0290   18.9980  C.2        1 SUBUNIT     -0.1012
40   C        14.6830   -3.9100   18.1710  C.2        1 SUBUNIT     -0.1011
41   C        15.9150   -3.5740   17.6010  C.2        1 SUBUNIT     -0.1041
42   H        26.8194   -0.5390   20.2339  H          1 SUBUNIT      0.1167
43   H        24.4268    0.0185   20.5176  H          1 SUBUNIT      0.1112
44   H        22.6974   -1.3835   19.4296  H          1 SUBUNIT      0.1116
45   H        23.3880   -1.4499   15.9198  H          1 SUBUNIT      0.0437
46   H        22.6366   -2.1374   14.4497  H          1 SUBUNIT      0.0437
47   H        21.0922   -1.6050   17.0728  H          1 SUBUNIT      0.0575
48   H        20.2303   -3.3743   15.1425  H          1 SUBUNIT      0.0574
49   H        18.6259   -0.8949   15.8857  H          1 SUBUNIT      0.0430
50   H        17.9596   -2.3566   15.0996  H          1 SUBUNIT      0.0430
51   H        18.4012   -3.1598   19.7707  H          1 SUBUNIT      0.0359
52   H        20.0404   -2.4569   19.6391  H          1 SUBUNIT      0.0359
53   H        20.9723   -1.1012   21.7712  H          1 SUBUNIT      0.0513
54   H        20.8930   -0.2506   23.3221  H          1 SUBUNIT      0.0513
55   H        20.2145    0.4962   21.8671  H          1 SUBUNIT      0.0513
56   H        19.0962   -0.7291   24.7887  H          1 SUBUNIT      0.1116
57   H        17.1893   -2.2350   25.3202  H          1 SUBUNIT      0.1115
58   H        15.6693   -2.9109   23.4767  H          1 SUBUNIT      0.1116
59   H        15.5904   -1.5644   20.2923  H          1 SUBUNIT      0.0513
60   H        15.0247   -2.9079   21.2973  H          1 SUBUNIT      0.0513
61   H        16.3489   -3.1579   20.1488  H          1 SUBUNIT      0.0513
62   H        21.1005   -2.0099   13.2330  H          1 SUBUNIT      0.0343
63   H        19.3370   -1.7135   13.2098  H          1 SUBUNIT      0.0343
64   H        21.1269    0.2247   13.4350  H          1 SUBUNIT      0.3043
65   H        19.6181    0.3315   14.0850  H          1 SUBUNIT      0.3043
66   H        20.4227    0.5156   16.0991  H          1 SUBUNIT      0.0325
67   H        22.0616    0.3954   15.3933  H          1 SUBUNIT      0.0325
68   H        25.7654   -3.8261   17.6871  H          1 SUBUNIT      0.1116
69   H        27.4923   -2.4740   18.8610  H          1 SUBUNIT      0.1112
70   H        21.8569   -6.6542   15.5636  H          1 SUBUNIT      0.0482
71   H        20.6877   -6.3229   14.2759  H          1 SUBUNIT      0.0482
72   H        20.8053   -5.2334   15.6667  H          1 SUBUNIT      0.0482
73   H        21.9382   -4.2101   13.6965  H          1 SUBUNIT      0.0439
74   H        24.1814   -3.7909   14.6324  H          1 SUBUNIT      0.0302
75   H        23.9341   -5.1230   15.7998  H          1 SUBUNIT      0.0302
76   H        23.6798   -6.7409   13.7398  H          1 SUBUNIT      0.0482
77   H        23.9392   -5.3424   12.6853  H          1 SUBUNIT      0.0482
78   H        22.4835   -6.3332   12.4997  H          1 SUBUNIT      0.0482
79   H        18.5163   -4.5196   16.3191  H          1 SUBUNIT      0.0267
80   H        19.1853   -4.3578   17.9698  H          1 SUBUNIT      0.0267
81   H        17.7621   -6.1170   18.8700  H          1 SUBUNIT      0.1057
82   H        15.5805   -6.7104   19.8744  H          1 SUBUNIT      0.1057
83   H        13.6076   -5.2679   19.4401  H          1 SUBUNIT      0.1057
84   H        13.8199   -3.2996   17.9705  H          1 SUBUNIT      0.1057
85   H        16.0029   -2.7157   16.9580  H          1 SUBUNIT      0.1057
@<TRIPOS>BOND
     1    1    2 2
     2    1   30 1
     3    2    3 1
     4    3    4 2
     5    4    5 1
     6    4   29 1
     7    5    6 2
     8    5    7 2
     9    5    8 1
    10    8    9 1
    11    8   33 1
    12    9   10 1
    13   10   11 1
    14   10   28 1
    15   11   12 1
    16   11   26 1
    17   12   13 1
    18   13   14 1
    19   13   35 1
    20   14   15 2
    21   14   16 1
    22   16   17 1
    23   17   18 1
    24   18   19 2
    25   18   24 1
    26   19   20 1
    27   19   21 1
    28   21   22 2
    29   22   23 1
    30   23   24 2
    31   24   25 1
    32   26   27 1
    33   27   28 1
    34   29   30 2
    35   31   32 1
    36   32   33 1
    37   32   34 1
    38   35   36 1
    39   36   37 2
    40   36   41 1
    41   37   38 1
    42   38   39 2
    43   39   40 1
    44   40   41 2
    45    1   42 1
    46    2   43 1
    47    3   44 1
    48    9   45 1
    49    9   46 1
    50   10   47 1
    51   11   48 1
    52   12   49 1
    53   12   50 1
    54   16   51 1
    55   16   52 1
    56   20   53 1
    57   20   54 1
    58   20   55 1
    59   21   56 1
    60   22   57 1
    61   23   58 1
    62   25   59 1
    63   25   60 1
    64   25   61 1
    65   26   62 1
    66   26   63 1
    67   27   64 1
    68   27   65 1
    69   28   66 1
    70   28   67 1
    71   29   68 1
    72   30   69 1
    73   31   70 1
    74   31   71 1
    75   31   72 1
    76   32   73 1
    77   33   74 1
    78   33   75 1
    79   34   76 1
    80   34   77 1
    81   34   78 1
    82   35   79 1
    83   35   80 1
    84   37   81 1
    85   38   82 1
    86   39   83 1
    87   40   84 1
    88   41   85 1
