@<TRIPOS>MOLECULE
2I78-KIQ
 49 52 0 0 0
SMALL
SF_CHARGES


@<TRIPOS>ATOM
1    C       -18.1330   -6.4410   61.0340  C.2        1 SUBUNIT     -0.0268
2    C       -19.3750   -6.7940   61.7260  C.2        1 SUBUNIT      0.6788
3    C       -20.3200   -4.5200   61.3530  C.3        1 SUBUNIT      0.1522
4    C       -24.0170   -4.4850   60.6140  C.2        1 SUBUNIT      0.2933
5    C       -18.1340   -5.9920   59.7540  C.2        1 SUBUNIT     -0.1004
6    C       -16.8650   -5.7630   58.9570  C.3        1 SUBUNIT     -0.0268
7    C       -15.6410   -5.7070   59.8670  C.3        1 SUBUNIT      0.0122
8    C       -14.2170   -6.5360   57.9740  C.2        1 SUBUNIT     -0.1018
9    F       -13.5090   -4.0080   60.4530  F          1 SUBUNIT     -0.1786
10   C       -13.3710   -4.8180   59.4060  C.2        1 SUBUNIT      0.1523
11   C       -12.1940   -4.7730   58.6730  C.2        1 SUBUNIT     -0.1162
12   C       -12.0170   -5.6250   57.5840  C.2        1 SUBUNIT      0.1392
13   F       -10.8680   -5.6140   56.8660  F          1 SUBUNIT     -0.1819
14   C       -13.0330   -6.4970   57.2420  C.2        1 SUBUNIT      0.1397
15   F       -12.8630   -7.3060   56.1900  F          1 SUBUNIT     -0.1810
16   C       -14.3920   -5.6880   59.0670  C.2        1 SUBUNIT     -0.0399
17   C       -15.6920   -6.8860   60.8410  C.3        1 SUBUNIT      0.1845
18   N       -14.4730   -7.0730   61.5970  N.4        1 SUBUNIT     -0.4368
19   C       -16.8440   -6.6380   61.8040  C.3        1 SUBUNIT     -0.0397
20   O       -19.4220   -7.9040   62.2380  O.2        1 SUBUNIT     -0.5334
21   N       -20.3920   -5.9180   61.8220  N.am       1 SUBUNIT     -0.4613
22   C       -21.6180   -6.3260   62.5190  C.3        1 SUBUNIT      0.1606
23   C       -22.8210   -5.7130   61.8680  C.2        1 SUBUNIT      0.3236
24   N       -24.1220   -6.0360   62.1010  N.2        1 SUBUNIT     -0.2886
25   N       -24.9170   -5.2260   61.2760  N.2        1 SUBUNIT     -0.2885
26   C       -24.4780   -3.4630   59.6160  C.3        1 SUBUNIT      0.7726
27   F       -24.4150   -3.9670   58.3890  F          1 SUBUNIT     -0.2585
28   F       -23.7790   -2.3390   59.7030  F          1 SUBUNIT     -0.2585
29   F       -25.7320   -3.1950   59.9180  F          1 SUBUNIT     -0.2585
30   N       -22.7440   -4.7440   60.9390  N.pl3      1 SUBUNIT     -0.2551
31   C       -21.4930   -4.1640   60.4370  C.3        1 SUBUNIT      0.1409
32   H       -20.3306   -3.8612   62.2276  H          1 SUBUNIT      0.0516
33   H       -19.3805   -4.3869   60.8066  H          1 SUBUNIT      0.0516
34   H       -19.1087   -5.8071   59.3374  H          1 SUBUNIT      0.1096
35   H       -16.7422   -6.5829   58.2417  H          1 SUBUNIT      0.0604
36   H       -16.9522   -4.8154   58.4153  H          1 SUBUNIT      0.0604
37   H       -15.6320   -4.7740   60.4401  H          1 SUBUNIT      0.0552
38   H       -14.9977   -7.2219   57.6952  H          1 SUBUNIT      0.1186
39   H       -11.4187   -4.0791   58.9472  H          1 SUBUNIT      0.1177
40   H       -15.7995   -7.8129   60.2679  H          1 SUBUNIT      0.0416
41   H       -13.6907   -7.2437   60.9846  H          1 SUBUNIT      0.3158
42   H       -14.5533   -7.8587   62.2234  H          1 SUBUNIT      0.3158
43   H       -14.2617   -6.2567   62.1494  H          1 SUBUNIT      0.3158
44   H       -16.6361   -5.7402   62.3954  H          1 SUBUNIT      0.0542
45   H       -16.9506   -7.4991   62.4720  H          1 SUBUNIT      0.0542
46   H       -21.7005   -7.4173   62.4839  H          1 SUBUNIT      0.0376
47   H       -21.5603   -5.9972   63.5619  H          1 SUBUNIT      0.0376
48   H       -21.6067   -3.0759   60.3910  H          1 SUBUNIT      0.0425
49   H       -21.3062   -4.5548   59.4313  H          1 SUBUNIT      0.0425
@<TRIPOS>BOND
     1    1    2 1
     2    1    5 2
     3    1   19 1
     4    2   20 2
     5    2   21 1
     6    3   21 1
     7    3   31 1
     8    4   25 2
     9    4   26 1
    10    4   30 1
    11    5    6 1
    12    6    7 1
    13    7   16 1
    14    7   17 1
    15    8   14 2
    16    8   16 1
    17    9   10 1
    18   10   11 1
    19   10   16 2
    20   11   12 2
    21   12   13 1
    22   12   14 1
    23   14   15 1
    24   17   18 1
    25   17   19 1
    26   21   22 1
    27   22   23 1
    28   23   24 2
    29   23   30 1
    30   24   25 1
    31   26   27 1
    32   26   28 1
    33   26   29 1
    34   30   31 1
    35    3   32 1
    36    3   33 1
    37    5   34 1
    38    6   35 1
    39    6   36 1
    40    7   37 1
    41    8   38 1
    42   11   39 1
    43   17   40 1
    44   18   41 1
    45   18   42 1
    46   18   43 1
    47   19   44 1
    48   19   45 1
    49   22   46 1
    50   22   47 1
    51   31   48 1
    52   31   49 1
