@<TRIPOS>MOLECULE
CHEMBL1084546
   55    58     0     0     0
SMALL
USER_CHARGES

@<TRIPOS>ATOM
      1 C1          0.6556    0.5755   -0.5500 C.3       1 <0>         0.0808
      2 N1         -0.4745   -0.0622    0.1301 N.pl3     1 <0>        -0.9464
      3 C2         -0.2574   -0.8286    1.2692 C.ar      1 <0>         0.3706
      4 C3         -0.1019   -0.2027    2.5021 C.ar      1 <0>        -0.1456
      5 C4          0.1134   -0.9774    3.6272 C.ar      1 <0>        -0.0427
      6 C5          0.1663   -2.3576    3.4815 C.ar      1 <0>        -0.1651
      7 C6          0.0037   -2.9118    2.2279 C.ar      1 <0>         0.1275
      8 N2         -0.2059   -2.1480    1.1722 N.ar      1 <0>        -0.4928
      9 C7         -0.1667    1.2991    2.6097 C.3       1 <0>         0.1698
     10 N3         -1.5672    1.7238    2.6774 N.pl3     1 <0>        -0.6976
     11 C8         -1.8786    3.0697    2.7807 C.ar      1 <0>         0.5242
     12 C9         -3.2103    3.4856    2.8517 C.ar      1 <0>        -0.4068
     13 C10        -3.4737    4.8373    2.9539 C.ar      1 <0>         0.2713
     14 N4         -2.4635    5.6944    2.9814 N.ar      1 <0>        -0.5870
     15 C11        -1.2098    5.2719    2.9124 C.ar      1 <0>         0.6180
     16 N5         -0.9146    3.9837    2.8192 N.ar      1 <0>        -0.6119
     17 N6         -0.1819    6.1995    2.9438 N.pl3     1 <0>        -0.6257
     18 C12        -0.4739    7.5686    2.9289 C.ar      1 <0>         0.1428
     19 C13         0.3556    8.4665    3.5887 C.ar      1 <0>        -0.1094
     20 C14         0.0707    9.8153    3.5758 C.ar      1 <0>        -0.1146
     21 C15        -1.0527   10.2887    2.9001 C.ar      1 <0>         0.1251
     22 C16        -1.8761    9.3836    2.2427 C.ar      1 <0>        -0.1201
     23 C17        -1.5921    8.0369    2.2489 C.ar      1 <0>        -0.0589
     24 C18        -2.9879   10.1951    1.6184 C.3       1 <0>        -0.1146
     25 C19        -2.6692   11.6216    2.0120 C.2       1 <0>         0.5285
     26 O1         -3.3093   12.6097    1.7200 O.2       1 <0>        -0.5039
     27 N7         -1.5441   11.5879    2.7458 N.am      1 <0>        -0.6598
     28 C20        -4.3339    2.4820    2.8171 C.3       1 <0>         0.5228
     29 F1         -5.5596    3.1510    2.9024 F         1 <0>        -0.1765
     30 F2         -4.2785    1.7611    1.6194 F         1 <0>        -0.1612
     31 F3         -4.2067    1.6021    3.8973 F         1 <0>        -0.1799
     32 S1         -2.0104    0.1301   -0.4583 S.o2      1 <0>         2.5998
     33 O2         -2.8554   -0.0406    0.6714 O.2       1 <0>        -0.9362
     34 O3         -1.9783    1.3660   -1.1588 O.2       1 <0>        -0.9410
     35 C21        -2.2389   -1.2422   -1.6225 C.3       1 <0>        -0.6672
     36 H1          1.1085   -0.1326   -1.2441 H         1 <0>         0.0657
     37 H2          0.3033    1.4483   -1.0997 H         1 <0>         0.0973
     38 H3          1.3959    0.8852    0.1877 H         1 <0>         0.0800
     39 H4          0.2381   -0.5195    4.5974 H         1 <0>         0.1455
     40 H5          0.3333   -2.9908    4.3403 H         1 <0>         0.1465
     41 H6          0.0444   -3.9845    2.1101 H         1 <0>         0.1670
     42 H7          0.3547    1.6216    3.5110 H         1 <0>         0.0878
     43 H8          0.3069    1.7468    1.7360 H         1 <0>         0.0875
     44 H9         -2.2764    1.0626    2.6498 H         1 <0>         0.4251
     45 H10        -4.4921    5.1922    3.0104 H         1 <0>         0.1828
     46 H11         0.7403    5.9006    2.9762 H         1 <0>         0.4266
     47 H12         1.2275    8.1062    4.1145 H         1 <0>         0.1349
     48 H13         0.7200   10.5074    4.0913 H         1 <0>         0.1321
     49 H14        -2.2390    7.3450    1.7301 H         1 <0>         0.1462
     50 H15        -2.9769   10.0868    0.5338 H         1 <0>         0.1246
     51 H16        -3.9541    9.8941    2.0233 H         1 <0>         0.1266
     52 H17        -1.1216   12.3745    3.1247 H         1 <0>         0.4133
     53 H18        -2.1248   -2.1891   -1.0948 H         1 <0>         0.1351
     54 H19        -3.2365   -1.1868   -2.0581 H         1 <0>         0.1305
     55 H20        -1.4926   -1.1752   -2.4141 H         1 <0>         0.1289
@<TRIPOS>BOND
     1    1    2 1
     2    1   36 1
     3    1   37 1
     4    1   38 1
     5    2    3 1
     6    2   32 1
     7    3    8 ar
     8    3    4 ar
     9    4    5 ar
    10    4    9 1
    11    5    6 ar
    12    5   39 1
    13    6    7 ar
    14    6   40 1
    15    7    8 ar
    16    7   41 1
    17    9   10 1
    18    9   42 1
    19    9   43 1
    20   10   11 1
    21   10   44 1
    22   11   16 ar
    23   11   12 ar
    24   12   13 ar
    25   12   28 1
    26   13   14 ar
    27   13   45 1
    28   14   15 ar
    29   15   16 ar
    30   15   17 1
    31   17   18 1
    32   17   46 1
    33   18   23 ar
    34   18   19 ar
    35   19   20 ar
    36   19   47 1
    37   20   21 ar
    38   20   48 1
    39   21   27 1
    40   21   22 ar
    41   22   23 ar
    42   22   24 1
    43   23   49 1
    44   24   25 1
    45   24   50 1
    46   24   51 1
    47   25   26 2
    48   25   27 am
    49   27   52 1
    50   28   29 1
    51   28   30 1
    52   28   31 1
    53   32   33 2
    54   32   34 2
    55   32   35 1
    56   35   53 1
    57   35   54 1
    58   35   55 1
@<TRIPOS>MOLECULE
CHEMBL162
   62    69     0     0     0
SMALL
USER_CHARGES

@<TRIPOS>ATOM
      1 C1         -0.1276    1.5938   -0.2902 C.3       1 <0>        -0.1687
      2 C2         -0.0844    0.0680   -0.1855 C.3       1 <0>         0.3345
      3 C3          0.5692   -0.4497   -1.4608 C.3       1 <0>         0.0405
      4 H1          1.4795    0.1163   -1.6584 H         1 <0>         0.1372
      5 C4          0.9165   -1.9328   -1.2885 C.3       1 <0>        -0.0062
      6 H2          1.3941   -2.3067   -2.1942 H         1 <0>         0.1555
      7 C5          1.8808   -2.0612   -0.1039 C.3       1 <0>        -0.1828
      8 C6          1.2106   -1.5234    1.1545 C.3       1 <0>         0.3001
      9 O1          0.6584   -0.2480    0.9698 O.3       1 <0>        -0.3232
     10 N1          0.2248   -2.4800    1.6600 N.pl3     1 <0>        -0.5368
     11 C7          0.4774   -3.5588    2.4701 C.ar      1 <0>         0.1470
     12 C8          1.6719   -4.0282    3.0159 C.ar      1 <0>        -0.1521
     13 C9          1.6013   -5.1613    3.8083 C.ar      1 <0>        -0.0582
     14 C10         0.4065   -5.8141    4.0588 C.ar      1 <0>        -0.1457
     15 C11        -0.7928   -5.3694    3.5296 C.ar      1 <0>        -0.0281
     16 C12        -0.7420   -4.2270    2.7281 C.ar      1 <0>        -0.1133
     17 C13        -1.7834   -3.4873    2.0211 C.ar      1 <0>         0.0272
     18 C14        -1.1387   -2.4235    1.3862 C.ar      1 <0>         0.0375
     19 C15        -1.8766   -1.5121    0.6225 C.ar      1 <0>         0.0893
     20 N2         -1.4701   -0.3965   -0.1042 N.pl3     1 <0>        -0.5183
     21 C16        -2.5609    0.1893   -0.7020 C.ar      1 <0>         0.1620
     22 C17        -2.6555    1.3256   -1.5046 C.ar      1 <0>        -0.1301
     23 C18        -3.9158    1.6704   -1.9636 C.ar      1 <0>        -0.0737
     24 C19        -5.0430    0.9315   -1.6503 C.ar      1 <0>        -0.1357
     25 C20        -4.9749   -0.2010   -0.8555 C.ar      1 <0>        -0.0503
     26 C21        -3.7134   -0.5626   -0.3834 C.ar      1 <0>        -0.1044
     27 C22        -3.2655   -1.6685    0.4924 C.ar      1 <0>        -0.0362
     28 C23        -3.9045   -2.7331    1.1195 C.ar      1 <0>        -0.0289
     29 C24        -3.1819   -3.6452    1.8815 C.ar      1 <0>        -0.1255
     30 C25        -4.1160   -4.6505    2.4114 C.2       1 <0>         0.5633
     31 O2         -3.7988   -5.5888    3.1172 O.2       1 <0>        -0.5106
     32 N3         -5.3694   -4.3854    2.0058 N.am      1 <0>        -0.7162
     33 C26        -5.3459   -3.1769    1.1740 C.3       1 <0>         0.1359
     34 N4         -0.3065   -2.7008   -1.0194 N.4       1 <0>        -0.5253
     35 C27         0.0148   -4.1335   -0.9747 C.3       1 <0>        -0.0497
     36 O3         -0.3352   -0.2957   -2.5564 O.3       1 <0>        -0.3613
     37 C28         0.3074   -0.0892   -3.8159 C.3       1 <0>         0.0162
     38 H3          0.8308    2.0068    0.0247 H         1 <0>         0.0984
     39 H4         -0.3256    1.8817   -1.3227 H         1 <0>         0.1037
     40 H5         -0.9185    1.9799    0.3528 H         1 <0>         0.0921
     41 H6          2.1400   -3.1098    0.0419 H         1 <0>         0.1233
     42 H7          2.7852   -1.4878   -0.3076 H         1 <0>         0.1455
     43 H8          1.9835   -1.4379    1.9183 H         1 <0>         0.1550
     44 H9          2.6113   -3.5296    2.8282 H         1 <0>         0.1364
     45 H10         2.5093   -5.5494    4.2456 H         1 <0>         0.1359
     46 H11         0.4102   -6.6943    4.6846 H         1 <0>         0.1352
     47 H12        -1.7231   -5.8814    3.7271 H         1 <0>         0.1602
     48 H13        -1.7841    1.9115   -1.7569 H         1 <0>         0.1438
     49 H14        -4.0225    2.5459   -2.5869 H         1 <0>         0.1335
     50 H15        -6.0015    1.2460   -2.0361 H         1 <0>         0.1333
     51 H16        -5.8562   -0.7761   -0.6128 H         1 <0>         0.1416
     52 H17        -6.1577   -4.9060    2.2257 H         1 <0>         0.4348
     53 H18        -5.9609   -2.3989    1.6262 H         1 <0>         0.1115
     54 H19        -5.7062   -3.4047    0.1708 H         1 <0>         0.1104
     55 H20        -0.6946   -2.4153   -0.1328 H         1 <0>         0.4186
     56 H21         0.7414   -4.3184   -0.1836 H         1 <0>         0.1191
     57 H22        -0.8927   -4.7033   -0.7750 H         1 <0>         0.1256
     58 H23         0.4340   -4.4418   -1.9324 H         1 <0>         0.1255
     59 H24        -0.4469    0.0185   -4.5954 H         1 <0>         0.1100
     60 H25         0.9142    0.8152   -3.7703 H         1 <0>         0.0633
     61 H26         0.9451   -0.9435   -4.0429 H         1 <0>         0.0514
     62 H27        -0.9792   -2.5296   -1.7517 H         1 <0>         0.4274
@<TRIPOS>BOND
     1    1    2 1
     2    1   38 1
     3    1   39 1
     4    1   40 1
     5    2    9 1
     6    2   20 1
     7    2    3 1
     8    3    4 1
     9    3    5 1
    10    3   36 1
    11    5    6 1
    12    5    7 1
    13    5   34 1
    14    7    8 1
    15    7   41 1
    16    7   42 1
    17    8    9 1
    18    8   10 1
    19    8   43 1
    20   10   18 1
    21   10   11 1
    22   11   16 ar
    23   11   12 ar
    24   12   13 ar
    25   12   44 1
    26   13   14 ar
    27   13   45 1
    28   14   15 ar
    29   14   46 1
    30   15   16 ar
    31   15   47 1
    32   16   17 1
    33   17   29 ar
    34   17   18 ar
    35   18   19 ar
    36   19   27 ar
    37   19   20 1
    38   20   21 1
    39   21   26 ar
    40   21   22 ar
    41   22   23 ar
    42   22   48 1
    43   23   24 ar
    44   23   49 1
    45   24   25 ar
    46   24   50 1
    47   25   26 ar
    48   25   51 1
    49   26   27 1
    50   27   28 ar
    51   28   33 1
    52   28   29 ar
    53   29   30 1
    54   30   31 2
    55   30   32 am
    56   32   33 1
    57   32   52 1
    58   33   53 1
    59   33   54 1
    60   34   35 1
    61   34   55 1
    62   34   62 1
    63   35   56 1
    64   35   57 1
    65   35   58 1
    66   36   37 1
    67   37   59 1
    68   37   60 1
    69   37   61 1
@<TRIPOS>MOLECULE
CHEMBL162__1
   61    68     0     0     0
SMALL
USER_CHARGES

@<TRIPOS>ATOM
      1 C1         -0.0567    1.5513   -0.0894 C.3       1 <0>        -0.1681
      2 C2         -0.0278    0.0218   -0.0599 C.3       1 <0>         0.3623
      3 C3          0.5811   -0.4397   -1.3782 C.3       1 <0>         0.0679
      4 H1          1.4914    0.1262   -1.5761 H         1 <0>         0.0865
      5 C4          0.9165   -1.9328   -1.2885 C.3       1 <0>         0.0550
      6 H2          1.3622   -2.2669   -2.2254 H         1 <0>         0.0644
      7 C5          1.9146   -2.1282   -0.1417 C.3       1 <0>        -0.1713
      8 C6          1.2889   -1.6457    1.1613 C.3       1 <0>         0.3303
      9 O1          0.7459   -0.3574    1.0554 O.3       1 <0>        -0.3432
     10 N1          0.3079   -2.6158    1.6500 N.pl3     1 <0>        -0.5147
     11 C7          0.5725   -3.7353    2.3988 C.ar      1 <0>         0.1480
     12 C8          1.7775   -4.2425    2.8844 C.ar      1 <0>        -0.1567
     13 C9          1.7179   -5.4120    3.6229 C.ar      1 <0>        -0.0771
     14 C10         0.5239   -6.0644    3.8782 C.ar      1 <0>        -0.1623
     15 C11        -0.6857   -5.5826    3.4081 C.ar      1 <0>        -0.0380
     16 C12        -0.6461   -4.4031    2.6615 C.ar      1 <0>        -0.1052
     17 C13        -1.6998   -3.6196    2.0235 C.ar      1 <0>        -0.0146
     18 C14        -1.0625   -2.5326    1.4212 C.ar      1 <0>         0.1328
     19 C15        -1.8127   -1.5778    0.7254 C.ar      1 <0>         0.2189
     20 N2         -1.4156   -0.4323    0.0413 N.pl3     1 <0>        -0.4798
     21 C16        -2.5171    0.1927   -0.4937 C.ar      1 <0>         0.1719
     22 C17        -2.6230    1.3676   -1.2371 C.ar      1 <0>        -0.1371
     23 C18        -3.8926    1.7468   -1.6400 C.ar      1 <0>        -0.0918
     24 C19        -5.0181    1.0048   -1.3284 C.ar      1 <0>        -0.1543
     25 C20        -4.9390   -0.1657   -0.5916 C.ar      1 <0>        -0.0609
     26 C21        -3.6680   -0.5623   -0.1765 C.ar      1 <0>        -0.0961
     27 C22        -3.2066   -1.7140    0.6307 C.ar      1 <0>        -0.0806
     28 C23        -3.8384   -2.8014    1.2249 C.ar      1 <0>        -0.0396
     29 C24        -3.1037   -3.7566    1.9194 C.ar      1 <0>        -0.1488
     30 C25        -4.0327   -4.7771    2.4285 C.2       1 <0>         0.5678
     31 O2         -3.7051   -5.7517    3.0781 O.2       1 <0>        -0.5303
     32 N3         -5.2947   -4.4802    2.0748 N.am      1 <0>        -0.7263
     33 C26        -5.2825   -3.2330    1.3021 C.3       1 <0>         0.1443
     34 N4         -0.3065   -2.7008   -1.0194 N.3       1 <0>        -0.6725
     35 C27        -0.9816   -3.0711   -2.2704 C.3       1 <0>         0.0321
     36 O3         -0.3541   -0.2236   -2.4368 O.3       1 <0>        -0.3500
     37 C28         0.2525    0.0376   -3.7040 C.3       1 <0>         0.0254
     38 H3          0.9143    1.9390    0.2190 H         1 <0>         0.0847
     39 H4         -0.2789    1.8910   -1.1010 H         1 <0>         0.0945
     40 H5         -0.8258    1.9134    0.5927 H         1 <0>         0.0811
     41 H6          2.1661   -3.1852   -0.0547 H         1 <0>         0.0955
     42 H7          2.8189   -1.5546   -0.3450 H         1 <0>         0.1024
     43 H8          2.0854   -1.6051    1.9042 H         1 <0>         0.1256
     44 H9          2.7165   -3.7447    2.6923 H         1 <0>         0.1264
     45 H10         2.6343   -5.8299    4.0129 H         1 <0>         0.1227
     46 H11         0.5364   -6.9739    4.4603 H         1 <0>         0.1222
     47 H12        -1.6153   -6.0942    3.6091 H         1 <0>         0.1517
     48 H13        -1.7529    1.9564   -1.4875 H         1 <0>         0.1345
     49 H14        -4.0081    2.6526   -2.2167 H         1 <0>         0.1197
     50 H15        -5.9842    1.3471   -1.6689 H         1 <0>         0.1193
     51 H16        -5.8191   -0.7431   -0.3501 H         1 <0>         0.1299
     52 H17        -6.0819   -5.0031    2.2935 H         1 <0>         0.4244
     53 H18        -5.8747   -2.4718    1.8101 H         1 <0>         0.0969
     54 H19        -5.6755   -3.4081    0.3006 H         1 <0>         0.0963
     55 H20        -0.1054   -3.5172   -0.4616 H         1 <0>         0.3444
     56 H21        -1.8838   -3.6387   -2.0422 H         1 <0>         0.0645
     57 H22        -1.2495   -2.1685   -2.8197 H         1 <0>         0.0818
     58 H23        -0.3126   -3.6808   -2.8776 H         1 <0>         0.0150
     59 H24        -0.5237    0.1905   -4.4538 H         1 <0>         0.0929
     60 H25         0.8707    0.9325   -3.6333 H         1 <0>         0.0448
     61 H26         0.8732   -0.8111   -3.9915 H         1 <0>         0.0400
@<TRIPOS>BOND
     1    1    2 1
     2    1   38 1
     3    1   39 1
     4    1   40 1
     5    2    9 1
     6    2   20 1
     7    2    3 1
     8    3    4 1
     9    3    5 1
    10    3   36 1
    11    5    6 1
    12    5    7 1
    13    5   34 1
    14    7    8 1
    15    7   41 1
    16    7   42 1
    17    8    9 1
    18    8   10 1
    19    8   43 1
    20   10   18 1
    21   10   11 1
    22   11   16 ar
    23   11   12 ar
    24   12   13 ar
    25   12   44 1
    26   13   14 ar
    27   13   45 1
    28   14   15 ar
    29   14   46 1
    30   15   16 ar
    31   15   47 1
    32   16   17 1
    33   17   29 ar
    34   17   18 ar
    35   18   19 ar
    36   19   27 ar
    37   19   20 1
    38   20   21 1
    39   21   26 ar
    40   21   22 ar
    41   22   23 ar
    42   22   48 1
    43   23   24 ar
    44   23   49 1
    45   24   25 ar
    46   24   50 1
    47   25   26 ar
    48   25   51 1
    49   26   27 1
    50   27   28 ar
    51   28   33 1
    52   28   29 ar
    53   29   30 1
    54   30   31 2
    55   30   32 am
    56   32   33 1
    57   32   52 1
    58   33   53 1
    59   33   54 1
    60   34   35 1
    61   34   55 1
    62   35   56 1
    63   35   57 1
    64   35   58 1
    65   36   37 1
    66   37   59 1
    67   37   60 1
    68   37   61 1
@<TRIPOS>MOLECULE
CHEMBL471526
   42    45     0     0     0
SMALL
USER_CHARGES

@<TRIPOS>ATOM
      1 C1          1.2204    1.4888    0.1657 C.ar      1 <0>        -0.0752
      2 C2          2.5103    1.9835    0.0464 C.ar      1 <0>        -0.1615
      3 C3          3.5624    1.0968   -0.0817 C.ar      1 <0>         0.1007
      4 N1          3.3503   -0.2048   -0.0916 N.ar      1 <0>        -0.4673
      5 C4          2.1377   -0.7106    0.0195 C.ar      1 <0>         0.0968
      6 C5          1.0368    0.1148    0.1516 C.ar      1 <0>        -0.1504
      7 C6          1.9498   -2.2057    0.0019 C.3       1 <0>         0.1819
      8 N2          1.8683   -2.6714   -1.3847 N.pl3     1 <0>        -0.6929
      9 C7          1.6947   -4.0192   -1.6537 C.ar      1 <0>         0.5271
     10 C8          1.6214   -4.4750   -2.9721 C.ar      1 <0>        -0.4123
     11 C9          1.4478   -5.8271   -3.1929 C.ar      1 <0>         0.2739
     12 N3          1.3565   -6.6469   -2.1558 N.ar      1 <0>        -0.5870
     13 C10         1.4294   -6.1869   -0.9156 C.ar      1 <0>         0.6202
     14 N4          1.6010   -4.8981   -0.6613 N.ar      1 <0>        -0.6130
     15 N5          1.3291   -7.0762    0.1413 N.pl3     1 <0>        -0.6243
     16 C11         1.2705   -8.4535   -0.1055 C.ar      1 <0>         0.1124
     17 C12         0.5098   -9.2762    0.7263 C.ar      1 <0>        -0.0836
     18 C13         0.4396  -10.6208    0.5030 C.ar      1 <0>        -0.1228
     19 C14         1.1316  -11.1886   -0.5642 C.ar      1 <0>         0.1177
     20 C15         1.9020  -10.3681   -1.4097 C.ar      1 <0>        -0.1615
     21 C16         1.9611   -8.9898   -1.1738 C.ar      1 <0>        -0.0281
     22 C17         2.4912  -11.2498   -2.4124 C.2       1 <0>         0.0794
     23 N6          2.0916  -12.4634   -2.1598 N.2       1 <0>        -0.2473
     24 N7          1.2578  -12.4708   -1.0370 N.pl3     1 <0>        -0.5110
     25 H1          0.8364  -13.2560   -0.6539 H         1 <0>         0.4403
     26 C18         1.7288   -3.5131   -4.1271 C.3       1 <0>         0.5283
     27 F1          1.6255   -4.2173   -5.3316 F         1 <0>        -0.1728
     28 F2          0.6970   -2.5716   -4.0475 F         1 <0>        -0.1798
     29 F3          2.9635   -2.8574   -4.0747 F         1 <0>        -0.1776
     30 H2          0.3793    2.1579    0.2716 H         1 <0>         0.1392
     31 H3          2.6904    3.0484    0.0531 H         1 <0>         0.1396
     32 H4          4.5701    1.4741   -0.1751 H         1 <0>         0.1607
     33 H5          0.0461   -0.3055    0.2426 H         1 <0>         0.1383
     34 H6          2.7952   -2.6840    0.4967 H         1 <0>         0.0922
     35 H7          1.0293   -2.4624    0.5262 H         1 <0>         0.0901
     36 H8          1.9358   -2.0359   -2.1145 H         1 <0>         0.4144
     37 H9          1.3868   -6.2122   -4.2000 H         1 <0>         0.1821
     38 H10         1.2993   -6.7450    1.0526 H         1 <0>         0.4258
     39 H11        -0.0292   -8.8441    1.5565 H         1 <0>         0.1340
     40 H12        -0.1530  -11.2455    1.1549 H         1 <0>         0.1317
     41 H13         2.5459   -8.3515   -1.8196 H         1 <0>         0.1435
     42 H14         3.1420  -10.9493   -3.2202 H         1 <0>         0.1982
@<TRIPOS>BOND
     1    1    6 ar
     2    1    2 ar
     3    1   30 1
     4    2    3 ar
     5    2   31 1
     6    3    4 ar
     7    3   32 1
     8    4    5 ar
     9    5    6 ar
    10    5    7 1
    11    6   33 1
    12    7    8 1
    13    7   34 1
    14    7   35 1
    15    8    9 1
    16    8   36 1
    17    9   14 ar
    18    9   10 ar
    19   10   11 ar
    20   10   26 1
    21   11   12 ar
    22   11   37 1
    23   12   13 ar
    24   13   14 ar
    25   13   15 1
    26   15   16 1
    27   15   38 1
    28   16   21 ar
    29   16   17 ar
    30   17   18 ar
    31   17   39 1
    32   18   19 ar
    33   18   40 1
    34   19   24 1
    35   19   20 ar
    36   20   21 ar
    37   20   22 1
    38   21   41 1
    39   22   23 2
    40   22   42 1
    41   23   24 1
    42   24   25 1
    43   26   27 1
    44   26   28 1
    45   26   29 1
@<TRIPOS>MOLECULE
CHEMBL471526__1
   42    45     0     0     0
SMALL
USER_CHARGES

@<TRIPOS>ATOM
      1 C1          1.2098    1.4886    0.1697 C.ar      1 <0>        -0.0753
      2 C2          2.4981    1.9850    0.0400 C.ar      1 <0>        -0.1617
      3 C3          3.5502    1.0997   -0.0970 C.ar      1 <0>         0.1007
      4 N1          3.3396   -0.2022   -0.1057 N.ar      1 <0>        -0.4673
      5 C4          2.1286   -0.7095    0.0152 C.ar      1 <0>         0.0971
      6 C5          1.0278    0.1144    0.1566 C.ar      1 <0>        -0.1505
      7 C6          1.9425   -2.2049   -0.0014 C.3       1 <0>         0.1820
      8 N2          1.8502   -2.6701   -1.3874 N.pl3     1 <0>        -0.6932
      9 C7          1.6762   -4.0181   -1.6555 C.ar      1 <0>         0.5267
     10 C8          1.5926   -4.4736   -2.9734 C.ar      1 <0>        -0.4123
     11 C9          1.4190   -5.8258   -3.1933 C.ar      1 <0>         0.2734
     12 N3          1.3372   -6.6461   -2.1559 N.ar      1 <0>        -0.5852
     13 C10         1.4196   -6.1864   -0.9161 C.ar      1 <0>         0.6210
     14 N4          1.5917   -4.8975   -0.6627 N.ar      1 <0>        -0.6132
     15 N5          1.3291   -7.0762    0.1413 N.pl3     1 <0>        -0.6269
     16 C11         1.2706   -8.4531   -0.1055 C.ar      1 <0>         0.1353
     17 C12         1.9817   -8.9848   -1.1909 C.ar      1 <0>        -0.0604
     18 C13         1.9615  -10.3094   -1.4769 C.ar      1 <0>        -0.0873
     19 C14         1.2086  -11.1883   -0.6682 C.ar      1 <0>         0.0988
     20 C15         0.4620  -10.6336    0.4714 C.ar      1 <0>        -0.1893
     21 C16         0.5286   -9.2453    0.7178 C.ar      1 <0>        -0.0796
     22 C17        -0.1748  -11.7000    1.0782 C.2       1 <0>         0.0796
     23 N6          0.1374  -12.8103    0.3936 N.pl3     1 <0>        -0.4260
     24 N7          0.9841  -12.4903   -0.6737 N.2       1 <0>        -0.3013
     25 H1         -0.1772  -13.7028    0.6067 H         1 <0>         0.4448
     26 C18         1.6894   -3.5111   -4.1290 C.3       1 <0>         0.5283
     27 F1          1.5772   -4.2150   -5.3328 F         1 <0>        -0.1728
     28 F2          0.6571   -2.5710   -4.0405 F         1 <0>        -0.1799
     29 F3          2.9236   -2.8538   -4.0864 F         1 <0>        -0.1777
     30 H2          0.3687    2.1566    0.2827 H         1 <0>         0.1392
     31 H3          2.6768    3.0501    0.0457 H         1 <0>         0.1395
     32 H4          4.5566    1.4783   -0.1985 H         1 <0>         0.1607
     33 H5          0.0384   -0.3072    0.2555 H         1 <0>         0.1383
     34 H6          2.7924   -2.6822    0.4863 H         1 <0>         0.0922
     35 H7          1.0266   -2.4629    0.5303 H         1 <0>         0.0901
     36 H8          1.9110   -2.0344   -2.1175 H         1 <0>         0.4142
     37 H9          1.3502   -6.2106   -4.2001 H         1 <0>         0.1822
     38 H10         1.3062   -6.7454    1.0528 H         1 <0>         0.4250
     39 H11         2.5607   -8.3210   -1.8158 H         1 <0>         0.1408
     40 H12         2.5185  -10.6908   -2.3200 H         1 <0>         0.1339
     41 H13        -0.0075   -8.8139    1.5502 H         1 <0>         0.1278
     42 H14        -0.8105  -11.6483    1.9498 H         1 <0>         0.1884
@<TRIPOS>BOND
     1    1    6 ar
     2    1    2 ar
     3    1   30 1
     4    2    3 ar
     5    2   31 1
     6    3    4 ar
     7    3   32 1
     8    4    5 ar
     9    5    6 ar
    10    5    7 1
    11    6   33 1
    12    7    8 1
    13    7   34 1
    14    7   35 1
    15    8    9 1
    16    8   36 1
    17    9   14 ar
    18    9   10 ar
    19   10   11 ar
    20   10   26 1
    21   11   12 ar
    22   11   37 1
    23   12   13 ar
    24   13   14 ar
    25   13   15 1
    26   15   16 1
    27   15   38 1
    28   16   21 ar
    29   16   17 ar
    30   17   18 ar
    31   17   39 1
    32   18   19 ar
    33   18   40 1
    34   19   20 ar
    35   19   24 2
    36   20   21 ar
    37   20   22 2
    38   21   41 1
    39   22   42 1
    40   22   23 1
    41   23   25 1
    42   23   24 1
    43   26   27 1
    44   26   28 1
    45   26   29 1
@<TRIPOS>MOLECULE
CHEMBL470314
   46    49     0     0     0
SMALL
USER_CHARGES

@<TRIPOS>ATOM
      1 C1         -0.4318    0.5976   -0.9397 C.3       1 <0>         0.0784
      2 N1          0.1845    0.3223    0.3605 N.pl3     1 <0>        -0.4903
      3 C2          1.0048    1.1813    1.0393 C.2       1 <0>         0.0527
      4 C3          1.3962    0.6230    2.1958 C.2       1 <0>        -0.2019
      5 C4          0.7759   -0.7025    2.2638 C.ar      1 <0>        -0.0899
      6 C5          0.0196   -0.8392    1.0857 C.ar      1 <0>         0.0851
      7 C6         -0.6986   -2.0093    0.8636 C.ar      1 <0>        -0.1102
      8 C7         -0.6693   -3.0229    1.7950 C.ar      1 <0>        -0.1159
      9 C8          0.0759   -2.8898    2.9653 C.ar      1 <0>         0.1228
     10 C9          0.8031   -1.7376    3.2002 C.ar      1 <0>        -0.0588
     11 N2          0.0942   -3.9301    3.9031 N.pl3     1 <0>        -0.6237
     12 C10         0.2075   -3.6432    5.2532 C.ar      1 <0>         0.6204
     13 N3          0.1859   -2.3789    5.6491 N.ar      1 <0>        -0.5835
     14 C11         0.2917   -2.0650    6.9318 C.ar      1 <0>         0.2733
     15 C12         0.4261   -3.0740    7.8656 C.ar      1 <0>        -0.4142
     16 C13         0.4456   -4.3969    7.4188 C.ar      1 <0>         0.5266
     17 N4          0.3294   -4.6399    6.1171 N.ar      1 <0>        -0.6142
     18 N5          0.5791   -5.4411    8.3194 N.pl3     1 <0>        -0.6938
     19 C14         0.5983   -6.8249    7.8389 C.3       1 <0>         0.1821
     20 C15         0.7521   -7.7611    9.0098 C.ar      1 <0>         0.0975
     21 C16        -0.3706   -8.3273    9.5839 C.ar      1 <0>        -0.1505
     22 C17        -0.2182   -9.1871   10.6605 C.ar      1 <0>        -0.0753
     23 C18         1.0637   -9.4466   11.1216 C.ar      1 <0>        -0.1619
     24 C19         2.1388   -8.8437   10.4971 C.ar      1 <0>         0.1006
     25 N6          1.9565   -8.0349    9.4714 N.ar      1 <0>        -0.4674
     26 C20         0.5494   -2.7544    9.3332 C.3       1 <0>         0.5286
     27 F1          0.5023   -1.3680    9.5140 F         1 <0>        -0.1731
     28 F2         -0.5059   -3.3518   10.0308 F         1 <0>        -0.1801
     29 F3          1.7662   -3.2468    9.8170 F         1 <0>        -0.1781
     30 H1         -1.3991    1.0769   -0.7890 H         1 <0>         0.0687
     31 H2          0.2155    1.2588   -1.5159 H         1 <0>         0.0827
     32 H3         -0.5703   -0.3379   -1.4815 H         1 <0>         0.0798
     33 H4          1.2951    2.1630    0.6955 H         1 <0>         0.1682
     34 H5          2.0458    1.0668    2.9356 H         1 <0>         0.1473
     35 H6         -1.2797   -2.1228   -0.0397 H         1 <0>         0.1227
     36 H7         -1.2293   -3.9291    1.6174 H         1 <0>         0.1283
     37 H8          1.3795   -1.6345    4.1076 H         1 <0>         0.1384
     38 H9          0.0276   -4.8513    3.6069 H         1 <0>         0.4244
     39 H10         0.2733   -1.0313    7.2440 H         1 <0>         0.1812
     40 H11         0.6598   -5.2559    9.2681 H         1 <0>         0.4140
     41 H12        -0.3353   -7.0424    7.3201 H         1 <0>         0.0898
     42 H13         1.4349   -6.9599    7.1534 H         1 <0>         0.0918
     43 H14        -1.3542   -8.1023    9.1988 H         1 <0>         0.1383
     44 H15        -1.0773   -9.6438   11.1293 H         1 <0>         0.1391
     45 H16         1.2197  -10.1111   11.9585 H         1 <0>         0.1394
     46 H17         3.1403   -9.0406   10.8501 H         1 <0>         0.1606
@<TRIPOS>BOND
     1    1    2 1
     2    1   30 1
     3    1   31 1
     4    1   32 1
     5    2    6 1
     6    2    3 1
     7    3    4 2
     8    3   33 1
     9    4    5 1
    10    4   34 1
    11    5   10 ar
    12    5    6 ar
    13    6    7 ar
    14    7    8 ar
    15    7   35 1
    16    8    9 ar
    17    8   36 1
    18    9   10 ar
    19    9   11 1
    20   10   37 1
    21   11   12 1
    22   11   38 1
    23   12   17 ar
    24   12   13 ar
    25   13   14 ar
    26   14   15 ar
    27   14   39 1
    28   15   16 ar
    29   15   26 1
    30   16   17 ar
    31   16   18 1
    32   18   19 1
    33   18   40 1
    34   19   20 1
    35   19   41 1
    36   19   42 1
    37   20   25 ar
    38   20   21 ar
    39   21   22 ar
    40   21   43 1
    41   22   23 ar
    42   22   44 1
    43   23   24 ar
    44   23   45 1
    45   24   25 ar
    46   24   46 1
    47   26   27 1
    48   26   28 1
    49   26   29 1
@<TRIPOS>MOLECULE
CHEMBL511152
   41    44     0     0     0
SMALL
USER_CHARGES

@<TRIPOS>ATOM
      1 C1          0.1847    1.4041   -0.2410 C.ar      1 <0>        -0.0753
      2 C2          1.3955    2.0580   -0.0698 C.ar      1 <0>        -0.1624
      3 C3          2.5462    1.3115    0.0972 C.ar      1 <0>         0.1005
      4 N1          2.5016   -0.0066    0.0945 N.ar      1 <0>        -0.4683
      5 C4          1.3686   -0.6617   -0.0656 C.ar      1 <0>         0.0989
      6 C5          0.1772    0.0178   -0.2377 C.ar      1 <0>        -0.1512
      7 C6          1.3725   -2.1687   -0.0613 C.3       1 <0>         0.1828
      8 N2          1.6873   -2.6600   -1.4050 N.pl3     1 <0>        -0.6939
      9 C7          1.7484   -4.0231   -1.6478 C.ar      1 <0>         0.4945
     10 C8          2.0535   -4.5031   -2.9246 C.ar      1 <0>        -0.2567
     11 C9          2.1032   -5.8700   -3.1198 C.ar      1 <0>         0.2330
     12 N3          1.8620   -6.6798   -2.0988 N.ar      1 <0>        -0.5801
     13 C10         1.5753   -6.1966   -0.8994 C.ar      1 <0>         0.6018
     14 N4          1.5231   -4.8930   -0.6689 N.ar      1 <0>        -0.6044
     15 N5          1.3290   -7.0768    0.1419 N.pl3     1 <0>        -0.6305
     16 C11         1.2705   -8.4537   -0.1044 C.ar      1 <0>         0.1470
     17 C12         1.7058   -9.3542    0.8595 C.ar      1 <0>        -0.1107
     18 C13         1.6494  -10.7107    0.6199 C.ar      1 <0>        -0.1141
     19 C14         1.1553  -11.1892   -0.5923 C.ar      1 <0>         0.1233
     20 C15         0.7223  -10.2812   -1.5502 C.ar      1 <0>        -0.1205
     21 C16         0.7712   -8.9265   -1.3123 C.ar      1 <0>        -0.0592
     22 C17         0.2523  -11.0996   -2.7308 C.3       1 <0>        -0.1142
     23 C18         0.4805  -12.5328   -2.3004 C.2       1 <0>         0.5282
     24 O1          0.2397  -13.5275   -2.9515 O.2       1 <0>        -0.5046
     25 N6          1.0005  -12.4963   -1.0621 N.am      1 <0>        -0.6596
     26 Cl1         2.3623   -3.4071   -4.2349 Cl        1 <0>        -0.0510
     27 H1         -0.7314    1.9615   -0.3693 H         1 <0>         0.1389
     28 H2          1.4386    3.1371   -0.0674 H         1 <0>         0.1392
     29 H3          3.4932    1.8132    0.2311 H         1 <0>         0.1603
     30 H4         -0.7477   -0.5244   -0.3679 H         1 <0>         0.1381
     31 H5          2.1236   -2.5281    0.6422 H         1 <0>         0.0893
     32 H6          0.3901   -2.5338    0.2382 H         1 <0>         0.0876
     33 H7          1.8530   -2.0313   -2.1249 H         1 <0>         0.4168
     34 H8          2.3358   -6.2741   -4.0940 H         1 <0>         0.1775
     35 H9          1.1971   -6.7389    1.0416 H         1 <0>         0.4258
     36 H10         2.0904   -8.9901    1.8007 H         1 <0>         0.1348
     37 H11         1.9896  -11.4050    1.3740 H         1 <0>         0.1317
     38 H12         0.4266   -8.2322   -2.0643 H         1 <0>         0.1435
     39 H13        -0.8062  -10.9220   -2.9212 H         1 <0>         0.1239
     40 H14         0.8445  -10.8678   -3.6160 H         1 <0>         0.1260
     41 H15         1.2408  -13.2861   -0.5528 H         1 <0>         0.4133
@<TRIPOS>BOND
     1    1    6 ar
     2    1    2 ar
     3    1   27 1
     4    2    3 ar
     5    2   28 1
     6    3    4 ar
     7    3   29 1
     8    4    5 ar
     9    5    6 ar
    10    5    7 1
    11    6   30 1
    12    7    8 1
    13    7   31 1
    14    7   32 1
    15    8    9 1
    16    8   33 1
    17    9   14 ar
    18    9   10 ar
    19   10   11 ar
    20   10   26 1
    21   11   12 ar
    22   11   34 1
    23   12   13 ar
    24   13   14 ar
    25   13   15 1
    26   15   16 1
    27   15   35 1
    28   16   21 ar
    29   16   17 ar
    30   17   18 ar
    31   17   36 1
    32   18   19 ar
    33   18   37 1
    34   19   25 1
    35   19   20 ar
    36   20   21 ar
    37   20   22 1
    38   21   38 1
    39   22   23 1
    40   22   39 1
    41   22   40 1
    42   23   24 2
    43   23   25 am
    44   25   41 1
@<TRIPOS>MOLECULE
CHEMBL452341
   56    59     0     0     0
SMALL
USER_CHARGES

@<TRIPOS>ATOM
      1 C1         -0.3275   -0.4349   -1.6224 C.3       1 <0>         0.0806
      2 N1          0.1786   -0.0435   -0.3045 N.pl3     1 <0>        -0.9588
      3 C2          0.4266   -1.0172    0.6657 C.ar      1 <0>         0.1578
      4 C3         -0.5997   -1.4496    1.4964 C.ar      1 <0>        -0.1208
      5 C4         -0.3512   -2.4127    2.4542 C.ar      1 <0>        -0.1030
      6 C5          0.9177   -2.9465    2.5875 C.ar      1 <0>        -0.1116
      7 C6          1.9415   -2.5181    1.7628 C.ar      1 <0>        -0.0879
      8 C7          1.6984   -1.5595    0.7985 C.ar      1 <0>        -0.0925
      9 C8          2.8132   -1.0980   -0.1044 C.3       1 <0>         0.1632
     10 N2          3.4546    0.0840    0.4767 N.pl3     1 <0>        -0.7011
     11 C9          4.5385    0.6670   -0.1592 C.ar      1 <0>         0.5223
     12 C10         5.1614    1.7908    0.3889 C.ar      1 <0>        -0.4247
     13 C11         6.2385    2.3387   -0.2795 C.ar      1 <0>         0.2685
     14 N3          6.6471    1.7869   -1.4128 N.ar      1 <0>        -0.5768
     15 C12         6.0374    0.7209   -1.9098 C.ar      1 <0>         0.6186
     16 N4          5.0044    0.1620   -1.2967 N.ar      1 <0>        -0.6233
     17 N5          6.4947    0.1737   -3.0969 N.pl3     1 <0>        -0.6100
     18 C13         7.6594    0.6721   -3.6951 C.ar      1 <0>         0.0456
     19 C14         8.6961    1.1647   -2.9132 C.ar      1 <0>        -0.0604
     20 C15         9.8332    1.6504   -3.5085 C.ar      1 <0>        -0.1531
     21 C16         9.9797    1.6632   -4.9106 C.ar      1 <0>         0.2029
     22 C17         8.9438    1.1717   -5.6758 C.ar      1 <0>        -0.2028
     23 C18         7.7938    0.6747   -5.0727 C.ar      1 <0>        -0.0629
     24 C19         9.2155    1.2369   -7.1756 C.3       1 <0>        -0.5771
     25 S1         10.8884    1.9834   -7.2011 S.o2      1 <0>         2.4680
     26 O1         11.8586    1.0422   -7.6395 O.2       1 <0>        -1.0102
     27 O2         10.8482    3.3035   -7.7253 O.2       1 <0>        -1.0092
     28 N6         11.1325    2.1535   -5.5590 N.2       1 <0>        -0.9789
     29 C20         4.6689    2.3920    1.6800 C.3       1 <0>         0.5260
     30 F1          5.4573    3.4997    2.0094 F         1 <0>        -0.1806
     31 F2          3.3379    2.7955    1.5287 F         1 <0>        -0.1649
     32 F3          4.7541    1.4390    2.7006 F         1 <0>        -0.1840
     33 S2          0.4567    1.5533    0.0350 S.o2      1 <0>         2.5970
     34 O3          1.3072    1.5392    1.1732 O.2       1 <0>        -0.9310
     35 O4          0.8998    2.1133   -1.1936 O.2       1 <0>        -0.9390
     36 C21        -1.1688    2.2257    0.4779 C.3       1 <0>        -0.6758
     37 H1         -1.4174   -0.4367   -1.6072 H         1 <0>         0.0589
     38 H2          0.0242    0.2741   -2.3719 H         1 <0>         0.0888
     39 H3          0.0341   -1.4332   -1.8687 H         1 <0>         0.0819
     40 H4         -1.5906   -1.0327    1.3933 H         1 <0>         0.1273
     41 H5         -1.1485   -2.7493    3.1002 H         1 <0>         0.1292
     42 H6          1.1095   -3.6994    3.3376 H         1 <0>         0.1294
     43 H7          2.9314   -2.9364    1.8700 H         1 <0>         0.1321
     44 H8          3.5487   -1.8954   -0.2102 H         1 <0>         0.0839
     45 H9          2.4068   -0.8462   -1.0839 H         1 <0>         0.0790
     46 H10         3.1204    0.4585    1.3068 H         1 <0>         0.4256
     47 H11         6.7422    3.2078    0.1170 H         1 <0>         0.1766
     48 H12         6.0087   -0.5547   -3.5141 H         1 <0>         0.4164
     49 H13         8.6073    1.1658   -1.8368 H         1 <0>         0.1256
     50 H14        10.6324    2.0311   -2.8900 H         1 <0>         0.1162
     51 H15         6.9934    0.2895   -5.6871 H         1 <0>         0.1064
     52 H16         9.2243    0.2399   -7.6161 H         1 <0>         0.1133
     53 H17         8.4919    1.8791   -7.6776 H         1 <0>         0.1135
     54 H18        -1.5194    1.7537    1.3957 H         1 <0>         0.1285
     55 H19        -1.0874    3.3018    0.6309 H         1 <0>         0.1309
     56 H20        -1.8763    2.0256   -0.3268 H         1 <0>         0.1263
@<TRIPOS>BOND
     1    1    2 1
     2    1   37 1
     3    1   38 1
     4    1   39 1
     5    2    3 1
     6    2   33 1
     7    3    8 ar
     8    3    4 ar
     9    4    5 ar
    10    4   40 1
    11    5    6 ar
    12    5   41 1
    13    6    7 ar
    14    6   42 1
    15    7    8 ar
    16    7   43 1
    17    8    9 1
    18    9   10 1
    19    9   44 1
    20    9   45 1
    21   10   11 1
    22   10   46 1
    23   11   16 ar
    24   11   12 ar
    25   12   13 ar
    26   12   29 1
    27   13   14 ar
    28   13   47 1
    29   14   15 ar
    30   15   16 ar
    31   15   17 1
    32   17   18 1
    33   17   48 1
    34   18   23 ar
    35   18   19 ar
    36   19   20 ar
    37   19   49 1
    38   20   21 ar
    39   20   50 1
    40   21   28 1
    41   21   22 ar
    42   22   23 ar
    43   22   24 1
    44   23   51 1
    45   24   25 1
    46   24   52 1
    47   24   53 1
    48   25   26 2
    49   25   27 2
    50   25   28 1
    51   29   30 1
    52   29   31 1
    53   29   32 1
    54   33   34 2
    55   33   35 2
    56   33   36 1
    57   36   54 1
    58   36   55 1
    59   36   56 1
@<TRIPOS>MOLECULE
CHEMBL452341__1
   57    60     0     0     0
SMALL
USER_CHARGES

@<TRIPOS>ATOM
      1 C1         -0.3275   -0.4349   -1.6224 C.3       1 <0>         0.0800
      2 N1          0.1786   -0.0435   -0.3045 N.pl3     1 <0>        -0.9595
      3 C2          0.4266   -1.0172    0.6657 C.ar      1 <0>         0.1579
      4 C3         -0.5997   -1.4496    1.4964 C.ar      1 <0>        -0.1196
      5 C4         -0.3512   -2.4127    2.4542 C.ar      1 <0>        -0.0987
      6 C5          0.9177   -2.9465    2.5875 C.ar      1 <0>        -0.1101
      7 C6          1.9415   -2.5181    1.7628 C.ar      1 <0>        -0.0874
      8 C7          1.6984   -1.5595    0.7985 C.ar      1 <0>        -0.0987
      9 C8          2.8132   -1.0980   -0.1044 C.3       1 <0>         0.1620
     10 N2          3.4546    0.0840    0.4767 N.pl3     1 <0>        -0.6927
     11 C9          4.5385    0.6670   -0.1592 C.ar      1 <0>         0.5235
     12 C10         5.1614    1.7908    0.3889 C.ar      1 <0>        -0.4066
     13 C11         6.2385    2.3387   -0.2795 C.ar      1 <0>         0.2699
     14 N3          6.6471    1.7869   -1.4128 N.ar      1 <0>        -0.5897
     15 C12         6.0374    0.7209   -1.9098 C.ar      1 <0>         0.6186
     16 N4          5.0044    0.1620   -1.2967 N.ar      1 <0>        -0.6120
     17 N5          6.4947    0.1737   -3.0969 N.pl3     1 <0>        -0.6275
     18 C13         7.6594    0.6721   -3.6951 C.ar      1 <0>         0.1471
     19 C14         8.6961    1.1647   -2.9132 C.ar      1 <0>        -0.0707
     20 C15         9.8332    1.6504   -3.5085 C.ar      1 <0>        -0.1144
     21 C16         9.9797    1.6633   -4.9106 C.ar      1 <0>         0.1284
     22 C17         8.9438    1.1717   -5.6758 C.ar      1 <0>        -0.1151
     23 C18         7.7938    0.6747   -5.0727 C.ar      1 <0>        -0.0870
     24 C19         9.2155    1.2369   -7.1756 C.3       1 <0>        -0.5458
     25 S1         10.8884    1.9834   -7.2011 S.o2      1 <0>         2.5832
     26 O1         11.8586    1.0422   -7.6395 O.2       1 <0>        -0.9423
     27 O2         10.8482    3.3035   -7.7253 O.2       1 <0>        -0.9415
     28 N6         11.1325    2.1535   -5.5590 N.pl3     1 <0>        -1.0307
     29 C20         4.6689    2.3920    1.6800 C.3       1 <0>         0.5240
     30 F1          5.4573    3.4997    2.0094 F         1 <0>        -0.1780
     31 F2          3.3379    2.7955    1.5287 F         1 <0>        -0.1603
     32 F3          4.7541    1.4390    2.7006 F         1 <0>        -0.1796
     33 S2          0.4567    1.5533    0.0350 S.o2      1 <0>         2.5977
     34 O3          1.3072    1.5392    1.1732 O.2       1 <0>        -0.9349
     35 O4          0.8998    2.1133   -1.1936 O.2       1 <0>        -0.9431
     36 C21        -1.1688    2.2257    0.4779 C.3       1 <0>        -0.6739
     37 H1         -1.4174   -0.4367   -1.6072 H         1 <0>         0.0610
     38 H2          0.0242    0.2741   -2.3719 H         1 <0>         0.0882
     39 H3          0.0341   -1.4332   -1.8687 H         1 <0>         0.0821
     40 H4         -1.5906   -1.0327    1.3933 H         1 <0>         0.1292
     41 H5         -1.1485   -2.7493    3.1002 H         1 <0>         0.1317
     42 H6          1.1095   -3.6994    3.3376 H         1 <0>         0.1313
     43 H7          2.9314   -2.9364    1.8700 H         1 <0>         0.1318
     44 H8          3.5487   -1.8954   -0.2102 H         1 <0>         0.0862
     45 H9          2.4068   -0.8461   -1.0839 H         1 <0>         0.0817
     46 H10         3.1204    0.4585    1.3068 H         1 <0>         0.4292
     47 H11         6.7422    3.2078    0.1170 H         1 <0>         0.1823
     48 H12         6.0087   -0.5547   -3.5141 H         1 <0>         0.4267
     49 H13         8.6073    1.1658   -1.8368 H         1 <0>         0.1487
     50 H14        10.6324    2.0311   -2.8900 H         1 <0>         0.1349
     51 H15         6.9934    0.2895   -5.6871 H         1 <0>         0.1371
     52 H16         9.2243    0.2399   -7.6161 H         1 <0>         0.1561
     53 H17         8.4919    1.8791   -7.6776 H         1 <0>         0.1561
     54 H18        11.9205    2.5221   -5.1300 H         1 <0>         0.4434
     55 H19        -1.5194    1.7537    1.3957 H         1 <0>         0.1303
     56 H20        -1.0874    3.3018    0.6309 H         1 <0>         0.1321
     57 H21        -1.8763    2.0256   -0.3268 H         1 <0>         0.1279
@<TRIPOS>BOND
     1    1    2 1
     2    1   37 1
     3    1   38 1
     4    1   39 1
     5    2    3 1
     6    2   33 1
     7    3    8 ar
     8    3    4 ar
     9    4    5 ar
    10    4   40 1
    11    5    6 ar
    12    5   41 1
    13    6    7 ar
    14    6   42 1
    15    7    8 ar
    16    7   43 1
    17    8    9 1
    18    9   10 1
    19    9   44 1
    20    9   45 1
    21   10   11 1
    22   10   46 1
    23   11   16 ar
    24   11   12 ar
    25   12   13 ar
    26   12   29 1
    27   13   14 ar
    28   13   47 1
    29   14   15 ar
    30   15   16 ar
    31   15   17 1
    32   17   18 1
    33   17   48 1
    34   18   23 ar
    35   18   19 ar
    36   19   20 ar
    37   19   49 1
    38   20   21 ar
    39   20   50 1
    40   21   28 1
    41   21   22 ar
    42   22   23 ar
    43   22   24 1
    44   23   51 1
    45   24   25 1
    46   24   52 1
    47   24   53 1
    48   25   26 2
    49   25   27 2
    50   25   28 1
    51   28   54 1
    52   29   30 1
    53   29   31 1
    54   29   32 1
    55   33   34 2
    56   33   35 2
    57   33   36 1
    58   36   55 1
    59   36   56 1
    60   36   57 1
@<TRIPOS>MOLECULE
CHEMBL382608
   45    47     0     0     0
SMALL
USER_CHARGES

@<TRIPOS>ATOM
      1 C1         -0.0342    1.4176    0.5559 C.3       1 <0>         0.0255
      2 O1         -0.0030   -0.0005    0.3823 O.3       1 <0>        -0.2990
      3 C2         -1.1977   -0.6288    0.2178 C.ar      1 <0>         0.1694
      4 C3         -2.3731    0.1058    0.2179 C.ar      1 <0>        -0.2281
      5 C4         -3.5929   -0.5354    0.0500 C.ar      1 <0>         0.2394
      6 C5         -3.6366   -1.9128   -0.1181 C.ar      1 <0>        -0.2624
      7 C6         -2.4620   -2.6488   -0.1185 C.ar      1 <0>         0.1706
      8 C7         -1.2401   -2.0070    0.0438 C.ar      1 <0>         0.0113
      9 O2         -0.0854   -2.7287    0.0380 O.3       1 <0>        -0.3104
     10 C8          0.3734   -3.2288    1.2955 C.3       1 <0>         0.0343
     11 O3         -2.5050   -3.9981   -0.2832 O.3       1 <0>        -0.2992
     12 C9         -3.7945   -4.5905   -0.4505 C.3       1 <0>         0.0240
     13 N1         -4.7798    0.2073    0.0507 N.pl3     1 <0>        -0.6267
     14 C10        -4.7904    1.4967   -0.4558 C.ar      1 <0>         0.5960
     15 N2         -3.6979    1.9716   -1.0358 N.ar      1 <0>        -0.5719
     16 C11        -3.6694    3.1995   -1.5324 C.ar      1 <0>         0.2450
     17 C12        -4.7983    3.9919   -1.4413 C.ar      1 <0>        -0.3020
     18 C13        -5.9347    3.4636   -0.8244 C.ar      1 <0>         0.4884
     19 N3         -5.8940    2.2217   -0.3528 N.ar      1 <0>        -0.5349
     20 N4         -7.0906    4.2226   -0.7099 N.pl3     1 <0>        -0.6278
     21 C14        -8.1803    3.7280    0.0009 C.ar      1 <0>         0.3612
     22 C15        -9.2937    4.5363    0.2061 C.ar      1 <0>        -0.2069
     23 C16       -10.3696    4.0321    0.9142 C.ar      1 <0>        -0.0450
     24 C17       -10.2955    2.7314    1.3952 C.ar      1 <0>        -0.2043
     25 C18        -9.1592    1.9853    1.1545 C.ar      1 <0>         0.1310
     26 N5         -8.1500    2.4907    0.4710 N.ar      1 <0>        -0.4667
     27 Br1        -4.8040    5.7509   -2.1354 Br        1 <0>        -0.0238
     28 H1          0.9826    1.7915    0.6760 H         1 <0>         0.1024
     29 H2         -0.4907    1.8808   -0.3188 H         1 <0>         0.0624
     30 H3         -0.6184    1.6623    1.4431 H         1 <0>         0.0534
     31 H4         -2.3401    1.1773    0.3490 H         1 <0>         0.1509
     32 H5         -4.5859   -2.4110   -0.2483 H         1 <0>         0.1380
     33 H6         -0.3823   -3.8887    1.7216 H         1 <0>         0.0432
     34 H7          1.3000   -3.7840    1.1495 H         1 <0>         0.0915
     35 H8          0.5525   -2.3952    1.9746 H         1 <0>         0.0433
     36 H9         -4.4064   -4.3831    0.4274 H         1 <0>         0.0571
     37 H10        -4.2747   -4.1720   -1.3351 H         1 <0>         0.0581
     38 H11        -3.6863   -5.6684   -0.5715 H         1 <0>         0.1036
     39 H12        -5.5947   -0.1810    0.4058 H         1 <0>         0.4286
     40 H13        -2.7738    3.5774   -2.0030 H         1 <0>         0.1800
     41 H14        -7.1393    5.0978   -1.1251 H         1 <0>         0.4319
     42 H15        -9.3176    5.5439   -0.1819 H         1 <0>         0.1354
     43 H16       -11.2474    4.6364    1.0894 H         1 <0>         0.1390
     44 H17       -11.1183    2.3081    1.9521 H         1 <0>         0.1360
     45 H18        -9.0972    0.9735    1.5270 H         1 <0>         0.1584
@<TRIPOS>BOND
     1    1    2 1
     2    1   28 1
     3    1   29 1
     4    1   30 1
     5    2    3 1
     6    3    8 ar
     7    3    4 ar
     8    4    5 ar
     9    4   31 1
    10    5    6 ar
    11    5   13 1
    12    6    7 ar
    13    6   32 1
    14    7    8 ar
    15    7   11 1
    16    8    9 1
    17    9   10 1
    18   10   33 1
    19   10   34 1
    20   10   35 1
    21   11   12 1
    22   12   36 1
    23   12   37 1
    24   12   38 1
    25   13   14 1
    26   13   39 1
    27   14   19 ar
    28   14   15 ar
    29   15   16 ar
    30   16   17 ar
    31   16   40 1
    32   17   18 ar
    33   17   27 1
    34   18   19 ar
    35   18   20 1
    36   20   21 1
    37   20   41 1
    38   21   26 ar
    39   21   22 ar
    40   22   23 ar
    41   22   42 1
    42   23   24 ar
    43   23   43 1
    44   24   25 ar
    45   24   44 1
    46   25   26 ar
    47   25   45 1
@<TRIPOS>MOLECULE
CHEMBL205588
   44    47     0     0     0
SMALL
USER_CHARGES

@<TRIPOS>ATOM
      1 C1         -0.0450    1.4032    0.6008 C.3       1 <0>         0.0256
      2 O1         -0.0126   -0.0126    0.4092 O.3       1 <0>        -0.2992
      3 C2         -1.2060   -0.6383    0.2259 C.ar      1 <0>         0.1698
      4 C3         -2.3811    0.0967    0.2250 C.ar      1 <0>        -0.2288
      5 C4         -3.5996   -0.5419    0.0379 C.ar      1 <0>         0.2443
      6 C5         -3.6420   -1.9169   -0.1489 C.ar      1 <0>        -0.2640
      7 C6         -2.4677   -2.6533   -0.1482 C.ar      1 <0>         0.1712
      8 C7         -1.2472   -2.0141    0.0337 C.ar      1 <0>         0.0097
      9 O2         -0.0926   -2.7361    0.0294 O.3       1 <0>        -0.3104
     10 C8          0.3542   -3.2527    1.2846 C.3       1 <0>         0.0342
     11 O3         -2.5095   -4.0003   -0.3303 O.3       1 <0>        -0.2993
     12 C9         -3.7977   -4.5902   -0.5163 C.3       1 <0>         0.0241
     13 N1         -4.7862    0.2011    0.0381 N.pl3     1 <0>        -0.6335
     14 C10        -4.7957    1.4918   -0.4668 C.ar      1 <0>         0.5822
     15 N2         -3.6979    1.9586   -1.0502 N.ar      1 <0>        -0.5544
     16 C11        -3.6568    3.1827   -1.5479 C.ar      1 <0>         0.2459
     17 C12        -4.7949    3.9818   -1.4489 C.ar      1 <0>        -0.2513
     18 C13        -5.1427    5.3436   -1.8588 C.2       1 <0>        -0.1208
     19 C14        -6.4125    5.5532   -1.4792 C.2       1 <0>         0.0321
     20 N3         -6.9059    4.4311   -0.8575 N.pl3     1 <0>        -0.3768
     21 C15        -5.9440    3.4544   -0.8229 C.ar      1 <0>         0.3834
     22 N4         -5.8996    2.2116   -0.3547 N.ar      1 <0>        -0.5463
     23 C16        -8.1919    4.3050   -0.3387 C.2       1 <0>         0.2484
     24 N5         -8.7294    3.2712    0.2714 N.2       1 <0>        -0.5169
     25 C17        -9.9736    3.3088    0.7102 C.2       1 <0>         0.0606
     26 C18       -10.6656    4.4563    0.5031 C.2       1 <0>        -0.2330
     27 S1         -9.4336    5.4412   -0.3335 S.3       1 <0>         0.1488
     28 H1          0.9708    1.7750    0.7348 H         1 <0>         0.1022
     29 H2         -0.4936    1.8778   -0.2719 H         1 <0>         0.0623
     30 H3         -0.6370    1.6365    1.4858 H         1 <0>         0.0532
     31 H4         -2.3490    1.1664    0.3703 H         1 <0>         0.1491
     32 H5         -4.5902   -2.4130   -0.2944 H         1 <0>         0.1375
     33 H6         -0.4056   -3.9177    1.6950 H         1 <0>         0.0430
     34 H7          1.2820   -3.8064    1.1401 H         1 <0>         0.0913
     35 H8          0.5272   -2.4280    1.9760 H         1 <0>         0.0432
     36 H9         -3.6887   -5.6665   -0.6499 H         1 <0>         0.1036
     37 H10        -4.4171   -4.3936    0.3588 H         1 <0>         0.0570
     38 H11        -4.2700   -4.1605   -1.3997 H         1 <0>         0.0580
     39 H12        -5.6016   -0.1875    0.3916 H         1 <0>         0.4265
     40 H13        -2.7603    3.5559   -2.0207 H         1 <0>         0.1811
     41 H14        -4.4999    6.0455   -2.3693 H         1 <0>         0.1715
     42 H15        -6.9646    6.4677   -1.6381 H         1 <0>         0.1879
     43 H16       -10.4206    2.4631    1.2115 H         1 <0>         0.1817
     44 H17       -11.6811    4.7066    0.7726 H         1 <0>         0.2054
@<TRIPOS>BOND
     1    1    2 1
     2    1   28 1
     3    1   29 1
     4    1   30 1
     5    2    3 1
     6    3    8 ar
     7    3    4 ar
     8    4    5 ar
     9    4   31 1
    10    5    6 ar
    11    5   13 1
    12    6    7 ar
    13    6   32 1
    14    7    8 ar
    15    7   11 1
    16    8    9 1
    17    9   10 1
    18   10   33 1
    19   10   34 1
    20   10   35 1
    21   11   12 1
    22   12   36 1
    23   12   37 1
    24   12   38 1
    25   13   14 1
    26   13   39 1
    27   14   22 ar
    28   14   15 ar
    29   15   16 ar
    30   16   17 ar
    31   16   40 1
    32   17   21 ar
    33   17   18 1
    34   18   19 2
    35   18   41 1
    36   19   20 1
    37   19   42 1
    38   20   21 1
    39   20   23 1
    40   21   22 ar
    41   23   27 1
    42   23   24 2
    43   24   25 1
    44   25   26 2
    45   25   43 1
    46   26   27 1
    47   26   44 1
@<TRIPOS>MOLECULE
CHEMBL377957
   42    45     0     0     0
SMALL
USER_CHARGES

@<TRIPOS>ATOM
      1 C1          1.2327    1.2169    0.1542 C.3       1 <0>        -0.1050
      2 C2          0.5819   -0.1398    0.0704 C.ar      1 <0>        -0.1592
      3 C3          0.5657   -0.8248   -1.1292 C.ar      1 <0>        -0.0573
      4 C4         -0.0302   -2.0689   -1.2095 C.ar      1 <0>        -0.2284
      5 C5         -0.6146   -2.6345   -0.0846 C.ar      1 <0>         0.1438
      6 C6         -0.6001   -1.9509    1.1207 C.ar      1 <0>        -0.1592
      7 C7          0.0037   -0.7034    1.2009 C.ar      1 <0>         0.2098
      8 N1          0.0251   -0.0129    2.4162 N.pl3     1 <0>        -0.6297
      9 C8         -0.0587   -0.7105    3.6113 C.ar      1 <0>         0.5745
     10 N2         -0.0334   -2.0377    3.5803 N.ar      1 <0>        -0.5537
     11 C9         -0.1103   -2.7484    4.6924 C.ar      1 <0>         0.2413
     12 C10        -0.2194   -2.0750    5.9083 C.ar      1 <0>        -0.2553
     13 C11        -0.3249   -2.4811    7.3110 C.2       1 <0>        -0.1346
     14 C12        -0.4027   -1.3562    8.0381 C.2       1 <0>         0.0358
     15 N3         -0.3552   -0.2601    7.2103 N.pl3     1 <0>        -0.4114
     16 C13        -0.2435   -0.6645    5.9049 C.ar      1 <0>         0.3804
     17 N4         -0.1557   -0.0296    4.7409 N.ar      1 <0>        -0.5422
     18 C14        -0.4127    1.0686    7.6356 C.ar      1 <0>         0.3464
     19 C15        -0.5206    1.3533    8.9919 C.ar      1 <0>        -0.1893
     20 C16        -0.5762    2.6744    9.3999 C.ar      1 <0>        -0.0473
     21 C17        -0.5217    3.6690    8.4329 C.ar      1 <0>        -0.1903
     22 C18        -0.4145    3.3134    7.1029 C.ar      1 <0>         0.1348
     23 N5         -0.3586    2.0451    6.7442 N.ar      1 <0>        -0.4787
     24 O1         -1.2011   -3.8578   -0.1654 O.3       1 <0>        -0.3153
     25 C19        -1.1794   -4.5048   -1.4393 C.3       1 <0>         0.0280
     26 H1          2.2855    1.0996    0.4111 H         1 <0>         0.0682
     27 H2          1.1476    1.7207   -0.8086 H         1 <0>         0.0694
     28 H3          0.7358    1.8115    0.9207 H         1 <0>         0.0571
     29 H4          1.0193   -0.3870   -2.0061 H         1 <0>         0.1278
     30 H5         -0.0416   -2.6018   -2.1488 H         1 <0>         0.1269
     31 H6         -1.0543   -2.3895    1.9970 H         1 <0>         0.1579
     32 H7          0.0986    0.9543    2.4233 H         1 <0>         0.4242
     33 H8         -0.0894   -3.8277    4.6597 H         1 <0>         0.1781
     34 H9         -0.3382   -3.4929    7.6883 H         1 <0>         0.1652
     35 H10        -0.4897   -1.3177    9.1139 H         1 <0>         0.1844
     36 H11        -0.5608    0.5543    9.7173 H         1 <0>         0.1414
     37 H12        -0.6604    2.9260   10.4468 H         1 <0>         0.1448
     38 H13        -0.5631    4.7099    8.7178 H         1 <0>         0.1424
     39 H14        -0.3722    4.0836    6.3470 H         1 <0>         0.1650
     40 H15        -1.6957   -3.8835   -2.1711 H         1 <0>         0.0548
     41 H16        -0.1464   -4.6539   -1.7536 H         1 <0>         0.0553
     42 H17        -1.6795   -5.4704   -1.3650 H         1 <0>         0.0993
@<TRIPOS>BOND
     1    1    2 1
     2    1   26 1
     3    1   27 1
     4    1   28 1
     5    2    7 ar
     6    2    3 ar
     7    3    4 ar
     8    3   29 1
     9    4    5 ar
    10    4   30 1
    11    5    6 ar
    12    5   24 1
    13    6    7 ar
    14    6   31 1
    15    7    8 1
    16    8    9 1
    17    8   32 1
    18    9   17 ar
    19    9   10 ar
    20   10   11 ar
    21   11   12 ar
    22   11   33 1
    23   12   16 ar
    24   12   13 1
    25   13   14 2
    26   13   34 1
    27   14   15 1
    28   14   35 1
    29   15   16 1
    30   15   18 1
    31   16   17 ar
    32   18   23 ar
    33   18   19 ar
    34   19   20 ar
    35   19   36 1
    36   20   21 ar
    37   20   37 1
    38   21   22 ar
    39   21   38 1
    40   22   23 ar
    41   22   39 1
    42   24   25 1
    43   25   40 1
    44   25   41 1
    45   25   42 1
@<TRIPOS>MOLECULE
CHEMBL207935
   35    38     0     0     0
SMALL
USER_CHARGES

@<TRIPOS>ATOM
      1 C1          0.1598    1.3683    0.6646 C.ar      1 <0>        -0.0912
      2 C2          1.1755    2.0859    0.0597 C.ar      1 <0>        -0.1331
      3 C3          2.2121    1.4244   -0.5726 C.ar      1 <0>        -0.0868
      4 C4          2.2360    0.0428   -0.6019 C.ar      1 <0>        -0.0767
      5 C5          1.2168   -0.6809    0.0055 C.ar      1 <0>         0.1843
      6 C6          0.1775   -0.0125    0.6395 C.ar      1 <0>        -0.1189
      7 N1          1.2371   -2.0791   -0.0224 N.pl3     1 <0>        -0.6306
      8 C7          0.0536   -2.7919    0.0902 C.ar      1 <0>         0.5759
      9 N2         -1.0955   -2.1265    0.0985 N.ar      1 <0>        -0.5585
     10 C8         -2.2509   -2.7603    0.2037 C.ar      1 <0>         0.2411
     11 C9         -2.2423   -4.1507    0.3067 C.ar      1 <0>        -0.2540
     12 C10        -3.2696   -5.1858    0.4359 C.2       1 <0>        -0.1355
     13 C11        -2.6312   -6.3645    0.4918 C.2       1 <0>         0.0378
     14 N3         -1.2738   -6.1654    0.4085 N.pl3     1 <0>        -0.4109
     15 C12        -1.0037   -4.8259    0.2947 C.ar      1 <0>         0.3811
     16 N4          0.1100   -4.1102    0.1801 N.ar      1 <0>        -0.5396
     17 C13        -0.3122   -7.1774    0.4360 C.ar      1 <0>         0.3450
     18 C14        -0.7117   -8.5039    0.5494 C.ar      1 <0>        -0.1886
     19 C15         0.2515   -9.4971    0.5751 C.ar      1 <0>        -0.0473
     20 C16         1.5867   -9.1272    0.4861 C.ar      1 <0>        -0.1893
     21 C17         1.9115   -7.7896    0.3754 C.ar      1 <0>         0.1351
     22 N5          0.9708   -6.8651    0.3485 N.ar      1 <0>        -0.4785
     23 Cl1         3.5370   -0.7874   -1.3969 Cl        1 <0>        -0.0681
     24 H1         -0.6461    1.8883    1.1610 H         1 <0>         0.1315
     25 H2          1.1589    3.1656    0.0809 H         1 <0>         0.1316
     26 H3          3.0036    1.9879   -1.0443 H         1 <0>         0.1358
     27 H4         -0.6160   -0.5719    1.1125 H         1 <0>         0.1581
     28 H5          2.0795   -2.5500   -0.1205 H         1 <0>         0.4257
     29 H6         -3.1817   -2.2127    0.2101 H         1 <0>         0.1793
     30 H7         -4.3375   -5.0302    0.4784 H         1 <0>         0.1658
     31 H8         -3.1122   -7.3266    0.5885 H         1 <0>         0.1850
     32 H9         -1.7597   -8.7560    0.6170 H         1 <0>         0.1416
     33 H10        -0.0289  -10.5363    0.6628 H         1 <0>         0.1451
     34 H11         2.3632   -9.8776    0.5036 H         1 <0>         0.1428
     35 H12         2.9487   -7.4969    0.3058 H         1 <0>         0.1653
@<TRIPOS>BOND
     1    1    6 ar
     2    1    2 ar
     3    1   24 1
     4    2    3 ar
     5    2   25 1
     6    3    4 ar
     7    3   26 1
     8    4    5 ar
     9    4   23 1
    10    5    6 ar
    11    5    7 1
    12    6   27 1
    13    7    8 1
    14    7   28 1
    15    8   16 ar
    16    8    9 ar
    17    9   10 ar
    18   10   11 ar
    19   10   29 1
    20   11   15 ar
    21   11   12 1
    22   12   13 2
    23   12   30 1
    24   13   14 1
    25   13   31 1
    26   14   15 1
    27   14   17 1
    28   15   16 ar
    29   17   22 ar
    30   17   18 ar
    31   18   19 ar
    32   18   32 1
    33   19   20 ar
    34   19   33 1
    35   20   21 ar
    36   20   34 1
    37   21   22 ar
    38   21   35 1
@<TRIPOS>MOLECULE
CHEMBL529889
   60    64     0     0     0
SMALL
USER_CHARGES

@<TRIPOS>ATOM
      1 C1          2.3226    1.4158    1.2648 C.ar      1 <0>        -0.0503
      2 C2          2.2500    2.1233    0.0792 C.ar      1 <0>        -0.1371
      3 C3          1.9601    1.4657   -1.1013 C.ar      1 <0>        -0.0120
      4 C4          1.7432    0.1002   -1.0968 C.ar      1 <0>        -0.6738
      5 C5          1.8167   -0.6072    0.0883 C.ar      1 <0>         0.0015
      6 C6          2.1053    0.0508    1.2695 C.ar      1 <0>        -0.1434
      7 C7          1.5793   -2.0954    0.0934 C.3       1 <0>         0.1111
      8 N1          1.3437   -2.5476    1.4668 N.pl3     1 <0>        -0.6970
      9 C8          1.2239   -3.9005    1.7397 C.ar      1 <0>         0.5257
     10 C9          1.1059   -4.3500    3.0570 C.ar      1 <0>        -0.4103
     11 C10         0.9888   -5.7075    3.2818 C.ar      1 <0>         0.2754
     12 N2          0.9918   -6.5383    2.2495 N.ar      1 <0>        -0.5841
     13 C11         1.1052   -6.0840    1.0102 C.ar      1 <0>         0.6210
     14 N3          1.2141   -4.7893    0.7517 N.ar      1 <0>        -0.6084
     15 N4          1.1046   -6.9848   -0.0418 N.pl3     1 <0>        -0.6254
     16 C12         1.1046   -8.3610    0.2151 C.ar      1 <0>         0.1395
     17 C13         0.3868   -9.2239   -0.6033 C.ar      1 <0>        -0.1038
     18 C14         0.3849  -10.5796   -0.3529 C.ar      1 <0>        -0.1156
     19 C15         1.1038  -11.0952    0.7241 C.ar      1 <0>         0.1297
     20 C16         1.8190  -10.2249    1.5367 C.ar      1 <0>        -0.1223
     21 C17         1.8276   -8.8714    1.2869 C.ar      1 <0>        -0.0534
     22 C18         2.4790  -11.0771    2.5963 C.3       1 <0>        -0.1144
     23 C19         2.0403  -12.4868    2.2619 C.2       1 <0>         0.5284
     24 O1          2.3419  -13.4966    2.8623 O.2       1 <0>        -0.5027
     25 N5          1.2541  -12.4094    1.1751 N.am      1 <0>        -0.6600
     26 C20         1.1068   -3.3758    4.2068 C.3       1 <0>         0.5276
     27 F1          1.0559   -4.0798    5.4146 F         1 <0>        -0.1707
     28 F2          2.2741   -2.6058    4.1646 F         1 <0>        -0.1800
     29 F3         -0.0088   -2.5373    4.1084 F         1 <0>        -0.1779
     30 S1          1.3725   -0.7380   -2.6016 S.o2      1 <0>         2.7047
     31 O2          0.2464   -1.5641   -2.3396 O.2       1 <0>        -0.9447
     32 O3          1.3729    0.2470   -3.6259 O.2       1 <0>        -0.9478
     33 N6          2.6405   -1.7539   -2.9214 N.pl3     1 <0>        -1.0116
     34 C21         3.9141   -1.3649   -3.5445 C.3       1 <0>         0.1159
     35 C22         4.7740   -2.6407   -3.6648 C.3       1 <0>        -0.1290
     36 C23         3.7181   -3.7768   -3.6209 C.3       1 <0>        -0.1284
     37 C24         2.6818   -3.1970   -2.6227 C.3       1 <0>         0.1084
     38 H1          2.5535    1.9289    2.1866 H         1 <0>         0.1372
     39 H2          2.4194    3.1899    0.0757 H         1 <0>         0.1388
     40 H3          1.9026    2.0184   -2.0274 H         1 <0>         0.1484
     41 H4          2.1620   -0.5019    2.1956 H         1 <0>         0.1293
     42 H5          0.7082   -2.3265   -0.5196 H         1 <0>         0.1249
     43 H6          2.4540   -2.6043   -0.3117 H         1 <0>         0.1060
     44 H7          1.2717   -1.8997    2.1851 H         1 <0>         0.4145
     45 H8          0.8962   -6.0881    4.2883 H         1 <0>         0.1833
     46 H9          1.1041   -6.6622   -0.9565 H         1 <0>         0.4277
     47 H10        -0.1727   -8.8308   -1.4393 H         1 <0>         0.1362
     48 H11        -0.1758  -11.2443   -0.9933 H         1 <0>         0.1329
     49 H12         2.3916   -8.2069    1.9247 H         1 <0>         0.1392
     50 H13         3.5638  -10.9902    2.5352 H         1 <0>         0.1243
     51 H14         2.1275  -10.7931    3.5883 H         1 <0>         0.1264
     52 H15         0.8387  -13.1772    0.7522 H         1 <0>         0.4140
     53 H16         3.7302   -0.9471   -4.5344 H         1 <0>         0.0775
     54 H17         4.4239   -0.6318   -2.9194 H         1 <0>         0.0669
     55 H18         5.3150   -2.6533   -4.6109 H         1 <0>         0.0845
     56 H19         5.4631   -2.7220   -2.8241 H         1 <0>         0.0764
     57 H20         3.2732   -3.9348   -4.6034 H         1 <0>         0.0800
     58 H21         4.1531   -4.6998   -3.2377 H         1 <0>         0.0851
     59 H22         3.0072   -3.3626   -1.5956 H         1 <0>         0.0728
     60 H23         1.7030   -3.6469   -2.7887 H         1 <0>         0.0887
@<TRIPOS>BOND
     1    1    6 ar
     2    1    2 ar
     3    1   38 1
     4    2    3 ar
     5    2   39 1
     6    3    4 ar
     7    3   40 1
     8    4    5 ar
     9    4   30 1
    10    5    6 ar
    11    5    7 1
    12    6   41 1
    13    7    8 1
    14    7   42 1
    15    7   43 1
    16    8    9 1
    17    8   44 1
    18    9   14 ar
    19    9   10 ar
    20   10   11 ar
    21   10   26 1
    22   11   12 ar
    23   11   45 1
    24   12   13 ar
    25   13   14 ar
    26   13   15 1
    27   15   16 1
    28   15   46 1
    29   16   21 ar
    30   16   17 ar
    31   17   18 ar
    32   17   47 1
    33   18   19 ar
    34   18   48 1
    35   19   25 1
    36   19   20 ar
    37   20   21 ar
    38   20   22 1
    39   21   49 1
    40   22   23 1
    41   22   50 1
    42   22   51 1
    43   23   24 2
    44   23   25 am
    45   25   52 1
    46   26   27 1
    47   26   28 1
    48   26   29 1
    49   30   31 2
    50   30   32 2
    51   30   33 1
    52   33   37 1
    53   33   34 1
    54   34   35 1
    55   34   53 1
    56   34   54 1
    57   35   36 1
    58   35   55 1
    59   35   56 1
    60   36   37 1
    61   36   57 1
    62   36   58 1
    63   37   59 1
    64   37   60 1
@<TRIPOS>MOLECULE
CHEMBL488247
   57    59     0     0     0
SMALL
USER_CHARGES

@<TRIPOS>ATOM
      1 C1         -0.3173   -0.4259   -1.6489 C.3       1 <0>         0.0799
      2 N1          0.1734   -0.0387   -0.3240 N.pl3     1 <0>        -0.9597
      3 C2          0.4347   -1.0177    0.6375 C.ar      1 <0>         0.1582
      4 C3         -0.5875   -1.4777    1.4582 C.ar      1 <0>        -0.1194
      5 C4         -0.3259   -2.4459    2.4074 C.ar      1 <0>        -0.0983
      6 C5          0.9521   -2.9573    2.5418 C.ar      1 <0>        -0.1101
      7 C6          1.9718   -2.5013    1.7269 C.ar      1 <0>        -0.0874
      8 C7          1.7157   -1.5374    0.7713 C.ar      1 <0>        -0.0992
      9 C8          2.8262   -1.0459   -0.1209 C.3       1 <0>         0.1617
     10 N2          3.4406    0.1435    0.4742 N.pl3     1 <0>        -0.6919
     11 C9          4.5159    0.7539   -0.1505 C.ar      1 <0>         0.5225
     12 C10         5.1130    1.8850    0.4109 C.ar      1 <0>        -0.4029
     13 C11         6.1824    2.4604   -0.2467 C.ar      1 <0>         0.2698
     14 N3          6.6079    1.9271   -1.3826 N.ar      1 <0>        -0.5868
     15 C12         6.0225    0.8537   -1.8924 C.ar      1 <0>         0.6163
     16 N4          4.9979    0.2687   -1.2900 N.ar      1 <0>        -0.6092
     17 N5          6.4969    0.3266   -3.0823 N.pl3     1 <0>        -0.6325
     18 C13         7.6518    0.8529   -3.6688 C.ar      1 <0>         0.2215
     19 C14         8.6739    1.3494   -2.8699 C.ar      1 <0>        -0.1353
     20 C15         9.8135    1.8682   -3.4524 C.ar      1 <0>        -0.0022
     21 C16         9.9378    1.8938   -4.8294 C.ar      1 <0>        -0.6800
     22 C17         8.9219    1.4007   -5.6277 C.ar      1 <0>        -0.0002
     23 C18         7.7821    0.8753   -5.0515 C.ar      1 <0>        -0.1689
     24 S1         11.3935    2.5566   -5.5685 S.o2      1 <0>         2.5026
     25 O1         10.9788    2.9980   -6.8539 O.2       1 <0>        -0.9393
     26 O2         11.8971    3.4800   -4.6130 O.2       1 <0>        -0.9377
     27 C19        12.5207    1.1440   -5.7266 C.3       1 <0>        -0.6516
     28 C20         4.6016    2.4645    1.7047 C.3       1 <0>         0.5241
     29 F1          5.3659    3.5849    2.0481 F         1 <0>        -0.1769
     30 F2          3.2636    2.8425    1.5497 F         1 <0>        -0.1596
     31 F3          4.7007    1.5042    2.7172 F         1 <0>        -0.1790
     32 S2          0.4184    1.5595    0.0338 S.o2      1 <0>         2.5975
     33 O3          1.2619    1.5499    1.1773 O.2       1 <0>        -0.9354
     34 O4          0.8581    2.1408   -1.1859 O.2       1 <0>        -0.9432
     35 C21        -1.2226    2.1956    0.4733 C.3       1 <0>        -0.6734
     36 H1         -1.4070   -0.4490   -1.6403 H         1 <0>         0.0613
     37 H2          0.0249    0.2977   -2.3888 H         1 <0>         0.0882
     38 H3          0.0651   -1.4144   -1.9035 H         1 <0>         0.0820
     39 H4         -1.5855   -1.0783    1.3543 H         1 <0>         0.1295
     40 H5         -1.1200   -2.8040    3.0457 H         1 <0>         0.1320
     41 H6          1.1542   -3.7142    3.2852 H         1 <0>         0.1315
     42 H7          2.9688   -2.9022    1.8350 H         1 <0>         0.1317
     43 H8          3.5782   -1.8275   -0.2294 H         1 <0>         0.0862
     44 H9          2.4205   -0.7936   -1.1007 H         1 <0>         0.0819
     45 H10         3.0944    0.5036    1.3057 H         1 <0>         0.4297
     46 H11         6.6664    3.3359    0.1603 H         1 <0>         0.1843
     47 H12         6.0279   -0.4077   -3.5087 H         1 <0>         0.4285
     48 H13         8.5773    1.3300   -1.7944 H         1 <0>         0.1472
     49 H14        10.6085    2.2547   -2.8318 H         1 <0>         0.1454
     50 H15         9.0218    1.4228   -6.7028 H         1 <0>         0.1461
     51 H16         6.9910    0.4864   -5.6754 H         1 <0>         0.1361
     52 H17        12.0611    0.3810   -6.3548 H         1 <0>         0.1308
     53 H18        13.4551    1.4739   -6.1804 H         1 <0>         0.1319
     54 H19        12.7230    0.7285   -4.7394 H         1 <0>         0.1311
     55 H20        -1.5697    1.7073    1.3838 H         1 <0>         0.1304
     56 H21        -1.1631    3.2715    0.6380 H         1 <0>         0.1323
     57 H22        -1.9211    1.9904   -0.3380 H         1 <0>         0.1281
@<TRIPOS>BOND
     1    1    2 1
     2    1   36 1
     3    1   37 1
     4    1   38 1
     5    2    3 1
     6    2   32 1
     7    3    8 ar
     8    3    4 ar
     9    4    5 ar
    10    4   39 1
    11    5    6 ar
    12    5   40 1
    13    6    7 ar
    14    6   41 1
    15    7    8 ar
    16    7   42 1
    17    8    9 1
    18    9   10 1
    19    9   43 1
    20    9   44 1
    21   10   11 1
    22   10   45 1
    23   11   16 ar
    24   11   12 ar
    25   12   13 ar
    26   12   28 1
    27   13   14 ar
    28   13   46 1
    29   14   15 ar
    30   15   16 ar
    31   15   17 1
    32   17   18 1
    33   17   47 1
    34   18   23 ar
    35   18   19 ar
    36   19   20 ar
    37   19   48 1
    38   20   21 ar
    39   20   49 1
    40   21   22 ar
    41   21   24 1
    42   22   23 ar
    43   22   50 1
    44   23   51 1
    45   24   25 2
    46   24   26 2
    47   24   27 1
    48   27   52 1
    49   27   53 1
    50   27   54 1
    51   28   29 1
    52   28   30 1
    53   28   31 1
    54   32   33 2
    55   32   34 2
    56   32   35 1
    57   35   55 1
    58   35   56 1
    59   35   57 1
@<TRIPOS>MOLECULE
CHEMBL383300
   54    57     0     0     0
SMALL
USER_CHARGES

@<TRIPOS>ATOM
      1 C1         -3.4343   -3.4851   -3.2467 C.3       1 <0>         0.0197
      2 O1         -2.2569   -3.2091   -2.4854 O.3       1 <0>        -0.2852
      3 C2         -2.3267   -2.1891   -1.5886 C.ar      1 <0>         0.1889
      4 C3         -3.5052   -1.4745   -1.4418 C.ar      1 <0>        -0.2939
      5 C4         -3.5766   -0.4333   -0.5263 C.ar      1 <0>         0.1833
      6 C5         -2.4680   -0.1072    0.2431 C.ar      1 <0>        -0.2320
      7 C6         -1.2888   -0.8212    0.0978 C.ar      1 <0>         0.1882
      8 C7         -1.2180   -1.8668   -0.8150 C.ar      1 <0>         0.0396
      9 O2         -0.0616   -2.5721   -0.9547 O.3       1 <0>        -0.3075
     10 C8          0.8784   -2.0926   -1.9184 C.3       1 <0>         0.0328
     11 O3         -0.2028   -0.5014    0.8512 O.3       1 <0>        -0.2868
     12 C9         -0.3483    0.5815    1.7722 C.3       1 <0>         0.0181
     13 N1         -4.7672    0.2887   -0.3793 N.pl3     1 <0>        -0.6149
     14 C10        -5.9827   -0.3750   -0.3685 C.ar      1 <0>         0.6497
     15 N2         -5.9955   -1.7000   -0.3647 N.ar      1 <0>        -0.5649
     16 C11        -7.1378   -2.3708   -0.3566 C.ar      1 <0>         0.1964
     17 C12        -8.3308   -1.6711   -0.3505 C.ar      1 <0>        -0.2004
     18 C13        -8.2848   -0.2806   -0.3514 C.ar      1 <0>         0.5345
     19 N3         -7.1040    0.3305   -0.3567 N.ar      1 <0>        -0.5475
     20 N4         -9.4520    0.4702   -0.3372 N.pl3     1 <0>        -0.5193
     21 C14       -10.7284   -0.1968   -0.6302 C.3       1 <0>         0.3198
     22 C15       -10.7636   -1.5152    0.1537 C.3       1 <0>        -0.1261
     23 C16        -9.6351   -2.4186   -0.3458 C.3       1 <0>        -0.0698
     24 O4        -10.8234   -0.4646   -2.0307 O.3       1 <0>        -0.5513
     25 C17        -9.4144    1.8316   -0.0500 C.ar      1 <0>         0.3132
     26 C18        -9.5430    2.2621    1.2665 C.ar      1 <0>        -0.1457
     27 C19        -9.5039    3.6178    1.5378 C.ar      1 <0>        -0.0607
     28 C20        -9.3368    4.5009    0.4791 C.ar      1 <0>        -0.1490
     29 C21        -9.2156    4.0040   -0.8031 C.ar      1 <0>         0.1203
     30 N5         -9.2512    2.7048   -1.0316 N.ar      1 <0>        -0.4745
     31 H1         -3.2431   -4.3192   -3.9219 H         1 <0>         0.1173
     32 H2         -4.2508   -3.7434   -2.5724 H         1 <0>         0.0532
     33 H3         -3.7071   -2.6034   -3.8266 H         1 <0>         0.0619
     34 H4         -4.3681   -1.7275   -2.0400 H         1 <0>         0.1391
     35 H5         -2.5242    0.7031    0.9548 H         1 <0>         0.1528
     36 H6          1.1830   -1.0795   -1.6560 H         1 <0>         0.0499
     37 H7          1.7524   -2.7438   -1.9286 H         1 <0>         0.1027
     38 H8          0.4165   -2.0889   -2.9057 H         1 <0>         0.0490
     39 H9          0.5891    0.7313    2.3079 H         1 <0>         0.1149
     40 H10        -0.6045    1.4900    1.2272 H         1 <0>         0.0633
     41 H11        -1.1404    0.3492    2.4840 H         1 <0>         0.0630
     42 H12        -4.7407    1.2538   -0.2849 H         1 <0>         0.4497
     43 H13        -7.1375   -3.4508   -0.3550 H         1 <0>         0.2199
     44 H14       -11.5568    0.4395   -0.3188 H         1 <0>         0.1111
     45 H15       -10.6259   -1.3122    1.2157 H         1 <0>         0.0975
     46 H16       -11.7229   -2.0081   -0.0041 H         1 <0>         0.1165
     47 H17        -9.8625   -2.7538   -1.3578 H         1 <0>         0.1093
     48 H18        -9.5513   -3.2864    0.3085 H         1 <0>         0.1053
     49 H19       -10.7837    0.3261   -2.5859 H         1 <0>         0.3969
     50 H20        -9.6720    1.5474    2.0659 H         1 <0>         0.1395
     51 H21        -9.6014    3.9815    2.5500 H         1 <0>         0.1492
     52 H22        -9.3024    5.5656    0.6570 H         1 <0>         0.1496
     53 H23        -9.0858    4.6871   -1.6295 H         1 <0>         0.1692
     54 H24        -5.1560   -2.1860   -0.3683 H         1 <0>         0.4445
@<TRIPOS>BOND
     1    1    2 1
     2    1   31 1
     3    1   32 1
     4    1   33 1
     5    2    3 1
     6    3    8 ar
     7    3    4 ar
     8    4    5 ar
     9    4   34 1
    10    5    6 ar
    11    5   13 1
    12    6    7 ar
    13    6   35 1
    14    7    8 ar
    15    7   11 1
    16    8    9 1
    17    9   10 1
    18   10   36 1
    19   10   37 1
    20   10   38 1
    21   11   12 1
    22   12   39 1
    23   12   40 1
    24   12   41 1
    25   13   14 1
    26   13   42 1
    27   14   19 ar
    28   14   15 ar
    29   15   16 ar
    30   15   54 1
    31   16   17 ar
    32   16   43 1
    33   17   23 1
    34   17   18 ar
    35   18   19 ar
    36   18   20 1
    37   20   21 1
    38   20   25 1
    39   21   22 1
    40   21   24 1
    41   21   44 1
    42   22   23 1
    43   22   45 1
    44   22   46 1
    45   23   47 1
    46   23   48 1
    47   24   49 1
    48   25   30 ar
    49   25   26 ar
    50   26   27 ar
    51   26   50 1
    52   27   28 ar
    53   27   51 1
    54   28   29 ar
    55   28   52 1
    56   29   30 ar
    57   29   53 1
@<TRIPOS>MOLECULE
CHEMBL383300__1
   55    58     0     0     0
SMALL
USER_CHARGES

@<TRIPOS>ATOM
      1 C1         -3.4331   -3.4868   -3.2411 C.3       1 <0>         0.0199
      2 O1         -2.2561   -3.2108   -2.4790 O.3       1 <0>        -0.2810
      3 C2         -2.3263   -2.1906   -1.5825 C.ar      1 <0>         0.1896
      4 C3         -3.5048   -1.4758   -1.4366 C.ar      1 <0>        -0.2938
      5 C4         -3.5766   -0.4343   -0.5214 C.ar      1 <0>         0.1614
      6 C5         -2.4684   -0.1083    0.2486 C.ar      1 <0>        -0.2238
      7 C6         -1.2893   -0.8224    0.1042 C.ar      1 <0>         0.1891
      8 C7         -1.2181   -1.8683   -0.8083 C.ar      1 <0>         0.0517
      9 O2         -0.0616   -2.5737   -0.9471 O.3       1 <0>        -0.3067
     10 C8          0.8790   -2.0946   -1.9103 C.3       1 <0>         0.0326
     11 O3         -0.2037   -0.5026    0.8582 O.3       1 <0>        -0.2825
     12 C9         -0.3496    0.5805    1.7789 C.3       1 <0>         0.0173
     13 N1         -4.7672    0.2879   -0.3753 N.pl3     1 <0>        -0.5988
     14 C10        -5.9828   -0.3756   -0.3655 C.ar      1 <0>         0.6547
     15 N2         -5.9959   -1.7006   -0.3617 N.ar      1 <0>        -0.5533
     16 C11        -7.1383   -2.3712   -0.3545 C.ar      1 <0>         0.2251
     17 C12        -8.3311   -1.6713   -0.3495 C.ar      1 <0>        -0.1968
     18 C13        -8.2850   -0.2808   -0.3504 C.ar      1 <0>         0.5299
     19 N3         -7.1040    0.3301   -0.3547 N.ar      1 <0>        -0.5686
     20 N4         -9.4520    0.4702   -0.3372 N.pl3     1 <0>        -0.5385
     21 C14       -10.7282   -0.1966   -0.6313 C.3       1 <0>         0.3273
     22 C15       -10.7644   -1.5149    0.1526 C.3       1 <0>        -0.1657
     23 C16        -9.6356   -2.4186   -0.3459 C.3       1 <0>        -0.0751
     24 O4        -10.8222   -0.4644   -2.0318 O.3       1 <0>        -0.5763
     25 C17        -9.4144    1.8316   -0.0500 C.ar      1 <0>         0.3672
     26 C18        -9.5373    2.2618    1.2671 C.ar      1 <0>        -0.0965
     27 C19        -9.4983    3.6175    1.5384 C.ar      1 <0>         0.0214
     28 C20        -9.3370    4.5009    0.4791 C.ar      1 <0>        -0.1072
     29 C21        -9.2212    4.0042   -0.8037 C.ar      1 <0>         0.1576
     30 N5         -9.2566    2.7051   -1.0322 N.ar      1 <0>        -0.4444
     31 H1         -3.2416   -4.3211   -3.9159 H         1 <0>         0.1208
     32 H2         -4.2500   -3.7448   -2.5672 H         1 <0>         0.0516
     33 H3         -3.7053   -2.6052   -3.8213 H         1 <0>         0.0614
     34 H4         -4.3673   -1.7288   -2.0353 H         1 <0>         0.1374
     35 H5         -2.5250    0.7023    0.9601 H         1 <0>         0.1543
     36 H6          1.7530   -2.7459   -1.9198 H         1 <0>         0.1071
     37 H7          0.4178   -2.0911   -2.8979 H         1 <0>         0.0506
     38 H8          1.1836   -1.0815   -1.6479 H         1 <0>         0.0519
     39 H9         -0.6053    1.4890    1.2335 H         1 <0>         0.0635
     40 H10        -1.1422    0.3485    2.4902 H         1 <0>         0.0633
     41 H11         0.5875    0.7303    2.3151 H         1 <0>         0.1188
     42 H12        -4.7406    1.2529   -0.2809 H         1 <0>         0.4503
     43 H13        -7.1382   -3.4512   -0.3530 H         1 <0>         0.2306
     44 H14       -11.5568    0.4398   -0.3206 H         1 <0>         0.1197
     45 H15       -10.6275   -1.3120    1.2147 H         1 <0>         0.1003
     46 H16       -11.7236   -2.0077   -0.0060 H         1 <0>         0.1240
     47 H17        -9.8622   -2.7537   -1.3581 H         1 <0>         0.1128
     48 H18        -9.5525   -3.2863    0.3085 H         1 <0>         0.1154
     49 H19       -11.6423   -0.9045   -2.2940 H         1 <0>         0.4246
     50 H20        -9.6619    1.5469    2.0670 H         1 <0>         0.1895
     51 H21        -9.5915    3.9810    2.5511 H         1 <0>         0.1917
     52 H22        -9.3028    5.5656    0.6570 H         1 <0>         0.1995
     53 H23        -9.0959    4.6876   -1.6306 H         1 <0>         0.2213
     54 H24        -5.1565   -2.1868   -0.3646 H         1 <0>         0.4538
     55 H25        -9.1686    2.3824   -1.9427 H         1 <0>         0.4498
@<TRIPOS>BOND
     1    1    2 1
     2    1   31 1
     3    1   32 1
     4    1   33 1
     5    2    3 1
     6    3    8 ar
     7    3    4 ar
     8    4    5 ar
     9    4   34 1
    10    5    6 ar
    11    5   13 1
    12    6    7 ar
    13    6   35 1
    14    7    8 ar
    15    7   11 1
    16    8    9 1
    17    9   10 1
    18   10   36 1
    19   10   37 1
    20   10   38 1
    21   11   12 1
    22   12   39 1
    23   12   40 1
    24   12   41 1
    25   13   14 1
    26   13   42 1
    27   14   19 ar
    28   14   15 ar
    29   15   16 ar
    30   15   54 1
    31   16   17 ar
    32   16   43 1
    33   17   23 1
    34   17   18 ar
    35   18   19 ar
    36   18   20 1
    37   20   21 1
    38   20   25 1
    39   21   22 1
    40   21   24 1
    41   21   44 1
    42   22   23 1
    43   22   45 1
    44   22   46 1
    45   23   47 1
    46   23   48 1
    47   24   49 1
    48   25   30 ar
    49   25   26 ar
    50   26   27 ar
    51   26   50 1
    52   27   28 ar
    53   27   51 1
    54   28   29 ar
    55   28   52 1
    56   29   30 ar
    57   29   53 1
    58   30   55 1
@<TRIPOS>MOLECULE
CHEMBL383300__2
   54    57     0     0     0
SMALL
USER_CHARGES

@<TRIPOS>ATOM
      1 C1         -3.3268   -3.6560   -2.7146 C.3       1 <0>         0.0199
      2 O1         -2.2575   -3.5802   -1.7697 O.3       1 <0>        -0.2852
      3 C2         -2.3948   -2.6884   -0.7522 C.ar      1 <0>         0.1886
      4 C3         -3.5370   -1.9083   -0.6635 C.ar      1 <0>        -0.2942
      5 C4         -3.6774   -0.9979    0.3751 C.ar      1 <0>         0.1832
      6 C5         -2.6741   -0.8684    1.3259 C.ar      1 <0>        -0.2318
      7 C6         -1.5314   -1.6481    1.2389 C.ar      1 <0>         0.1886
      8 C7         -1.3923   -2.5631    0.2022 C.ar      1 <0>         0.0397
      9 O2         -0.2723   -3.3332    0.1189 O.3       1 <0>        -0.3075
     10 C8          0.8242   -2.8046   -0.6297 C.3       1 <0>         0.0328
     11 O3         -0.5486   -1.5207    2.1701 O.3       1 <0>        -0.2868
     12 C9         -0.7604   -0.5640    3.2102 C.3       1 <0>         0.0179
     13 N1         -4.8312   -0.2096    0.4635 N.pl3     1 <0>        -0.6146
     14 C10        -6.0729   -0.7688    0.2113 C.ar      1 <0>         0.6531
     15 N2         -6.1657   -2.0766    0.0192 N.ar      1 <0>        -0.5672
     16 C11        -7.3352   -2.6482   -0.2266 C.ar      1 <0>         0.2028
     17 C12        -8.4719   -1.8624   -0.2808 C.ar      1 <0>        -0.2133
     18 C13        -8.3429   -0.4930   -0.0717 C.ar      1 <0>         0.5344
     19 N3         -7.1393    0.0162    0.1734 N.ar      1 <0>        -0.5517
     20 N4         -9.4522    0.3401   -0.1069 N.pl3     1 <0>        -0.5193
     21 C14       -10.7098   -0.1760   -0.6654 C.3       1 <0>         0.3250
     22 C15       -10.9386   -1.5818   -0.0953 C.3       1 <0>        -0.1343
     23 C16        -9.8055   -2.4964   -0.5633 C.3       1 <0>        -0.0692
     24 O4        -11.7918    0.6793   -0.2912 O.3       1 <0>        -0.5279
     25 C17        -9.3753    1.6422    0.3791 C.ar      1 <0>         0.3148
     26 C18        -9.0475    2.6820   -0.4848 C.ar      1 <0>        -0.1474
     27 C19        -8.9745    3.9711    0.0114 C.ar      1 <0>        -0.0617
     28 C20        -9.2328    4.1776    1.3601 C.ar      1 <0>        -0.1485
     29 C21        -9.5524    3.0989    2.1602 C.ar      1 <0>         0.1201
     30 N5         -9.6200    1.8805    1.6581 N.ar      1 <0>        -0.4677
     31 H1         -3.0904   -4.4038   -3.4716 H         1 <0>         0.1170
     32 H2         -4.2463   -3.9369   -2.2011 H         1 <0>         0.0532
     33 H3         -3.4593   -2.6851   -3.1920 H         1 <0>         0.0616
     34 H4         -4.3180   -2.0085   -1.4028 H         1 <0>         0.1392
     35 H5         -2.7839   -0.1597    2.1334 H         1 <0>         0.1529
     36 H6          1.1481   -1.8638   -0.1846 H         1 <0>         0.0499
     37 H7          1.6498   -3.5161   -0.6162 H         1 <0>         0.1027
     38 H8          0.5111   -2.6307   -1.6591 H         1 <0>         0.0490
     39 H9          0.0969   -0.5633    3.8833 H         1 <0>         0.1151
     40 H10        -0.8800    0.4274    2.7731 H         1 <0>         0.0633
     41 H11        -1.6597   -0.8263    3.7675 H         1 <0>         0.0633
     42 H12        -4.7608    0.7281    0.7013 H         1 <0>         0.4499
     43 H13        -7.4000   -3.7149   -0.3832 H         1 <0>         0.2205
     44 H14       -10.6375   -0.2261   -1.7519 H         1 <0>         0.1004
     45 H15       -10.9456   -1.5373    0.9938 H         1 <0>         0.0941
     46 H16       -11.8923   -1.9699   -0.4527 H         1 <0>         0.1167
     47 H17        -9.9022   -2.6710   -1.6349 H         1 <0>         0.1048
     48 H18        -9.8706   -3.4491   -0.0379 H         1 <0>         0.1128
     49 H19       -11.7433    1.5656   -0.6748 H         1 <0>         0.3918
     50 H20        -8.8523    2.4855   -1.5287 H         1 <0>         0.1381
     51 H21        -8.7220    4.7983   -0.6354 H         1 <0>         0.1484
     52 H22        -9.1838    5.1719    1.7789 H         1 <0>         0.1493
     53 H23        -9.7537    3.2549    3.2097 H         1 <0>         0.1688
     54 H24        -5.3655   -2.6234    0.0589 H         1 <0>         0.4449
@<TRIPOS>BOND
     1    1    2 1
     2    1   31 1
     3    1   32 1
     4    1   33 1
     5    2    3 1
     6    3    8 ar
     7    3    4 ar
     8    4    5 ar
     9    4   34 1
    10    5    6 ar
    11    5   13 1
    12    6    7 ar
    13    6   35 1
    14    7    8 ar
    15    7   11 1
    16    8    9 1
    17    9   10 1
    18   10   36 1
    19   10   37 1
    20   10   38 1
    21   11   12 1
    22   12   39 1
    23   12   40 1
    24   12   41 1
    25   13   14 1
    26   13   42 1
    27   14   19 ar
    28   14   15 ar
    29   15   16 ar
    30   15   54 1
    31   16   17 ar
    32   16   43 1
    33   17   23 1
    34   17   18 ar
    35   18   19 ar
    36   18   20 1
    37   20   21 1
    38   20   25 1
    39   21   22 1
    40   21   24 1
    41   21   44 1
    42   22   23 1
    43   22   45 1
    44   22   46 1
    45   23   47 1
    46   23   48 1
    47   24   49 1
    48   25   30 ar
    49   25   26 ar
    50   26   27 ar
    51   26   50 1
    52   27   28 ar
    53   27   51 1
    54   28   29 ar
    55   28   52 1
    56   29   30 ar
    57   29   53 1
@<TRIPOS>MOLECULE
CHEMBL383300__3
   55    58     0     0     0
SMALL
USER_CHARGES

@<TRIPOS>ATOM
      1 C1         -3.3229   -3.5662   -2.8790 C.3       1 <0>         0.0197
      2 O1         -2.1893   -3.3032   -2.0497 O.3       1 <0>        -0.2810
      3 C2         -2.2991   -2.2805   -1.1601 C.ar      1 <0>         0.1897
      4 C3         -3.4752   -1.5509   -1.0843 C.ar      1 <0>        -0.2931
      5 C4         -3.5876   -0.5068   -0.1762 C.ar      1 <0>         0.1604
      6 C5         -2.5224   -0.1930    0.6570 C.ar      1 <0>        -0.2236
      7 C6         -1.3458   -0.9219    0.5827 C.ar      1 <0>         0.1889
      8 C7         -1.2342   -1.9703   -0.3227 C.ar      1 <0>         0.0523
      9 O2         -0.0805   -2.6902   -0.3927 O.3       1 <0>        -0.3069
     10 C8          0.9208   -2.2246   -1.2998 C.3       1 <0>         0.0326
     11 O3         -0.3023   -0.6139    1.3986 O.3       1 <0>        -0.2825
     12 C9         -0.4884    0.4727    2.3078 C.3       1 <0>         0.0174
     13 N1         -4.7756    0.2302   -0.1009 N.pl3     1 <0>        -0.5963
     14 C10        -5.9979   -0.4182   -0.1614 C.ar      1 <0>         0.6560
     15 N2         -6.0275   -1.7430   -0.1567 N.ar      1 <0>        -0.5551
     16 C11        -7.1766   -2.3994   -0.2156 C.ar      1 <0>         0.2323
     17 C12        -8.3590   -1.6850   -0.2812 C.ar      1 <0>        -0.2120
     18 C13        -8.2956   -0.2951   -0.2811 C.ar      1 <0>         0.5296
     19 N3         -7.1089    0.3012   -0.2171 N.ar      1 <0>        -0.5625
     20 N4         -9.4520    0.4702   -0.3372 N.pl3     1 <0>        -0.5465
     21 C14       -10.7170   -0.1814   -0.7046 C.3       1 <0>         0.3359
     22 C15       -10.8153   -1.4977    0.0775 C.3       1 <0>        -0.1725
     23 C16        -9.6706   -2.4161   -0.3530 C.3       1 <0>        -0.0771
     24 O4        -11.8148    0.6670   -0.3626 O.3       1 <0>        -0.5700
     25 C17        -9.4144    1.8316   -0.0500 C.ar      1 <0>         0.3825
     26 C18        -9.2543    2.7497   -1.0826 C.ar      1 <0>        -0.0912
     27 C19        -9.2186    4.0996   -0.7830 C.ar      1 <0>         0.0209
     28 C20        -9.3448    4.4873    0.5444 C.ar      1 <0>        -0.1101
     29 C21        -9.5010    3.5220    1.5188 C.ar      1 <0>         0.1541
     30 N5         -9.5368    2.2413    1.2029 N.ar      1 <0>        -0.4449
     31 H1         -3.1026   -4.4041   -3.5405 H         1 <0>         0.1208
     32 H2         -4.1811   -3.8128   -2.2537 H         1 <0>         0.0514
     33 H3         -3.5498   -2.6824   -3.4753 H         1 <0>         0.0621
     34 H4         -4.3043   -1.7945   -1.7321 H         1 <0>         0.1382
     35 H5         -2.6104    0.6196    1.3630 H         1 <0>         0.1541
     36 H6          1.7857   -2.8865   -1.2573 H         1 <0>         0.1071
     37 H7          0.5182   -2.2173   -2.3127 H         1 <0>         0.0510
     38 H8          1.2221   -1.2147   -1.0213 H         1 <0>         0.0520
     39 H9         -0.7005    1.3832    1.7473 H         1 <0>         0.0639
     40 H10        -1.3241    0.2518    2.9719 H         1 <0>         0.0628
     41 H11         0.4175    0.6120    2.8978 H         1 <0>         0.1188
     42 H12        -4.7426    1.1951   -0.0063 H         1 <0>         0.4514
     43 H13        -7.1900   -3.4793   -0.2126 H         1 <0>         0.2316
     44 H14       -10.7286   -0.3869   -1.7750 H         1 <0>         0.1151
     45 H15       -10.7383   -1.2943    1.1455 H         1 <0>         0.0921
     46 H16       -11.7696   -1.9789   -0.1364 H         1 <0>         0.1251
     47 H17        -9.8417   -2.7505   -1.3763 H         1 <0>         0.1136
     48 H18        -9.6366   -3.2835    0.3062 H         1 <0>         0.1188
     49 H19       -12.6811    0.2959   -0.5791 H         1 <0>         0.4326
     50 H20        -9.1587    2.4131   -2.1044 H         1 <0>         0.1853
     51 H21        -9.0950    4.8355   -1.5639 H         1 <0>         0.1892
     52 H22        -9.3207    5.5334    0.8119 H         1 <0>         0.1976
     53 H23        -9.5992    3.8190    2.5525 H         1 <0>         0.2197
     54 H24        -5.1955   -2.2394   -0.1098 H         1 <0>         0.4543
     55 H25        -9.6519    1.5836    1.9066 H         1 <0>         0.4446
@<TRIPOS>BOND
     1    1    2 1
     2    1   31 1
     3    1   32 1
     4    1   33 1
     5    2    3 1
     6    3    8 ar
     7    3    4 ar
     8    4    5 ar
     9    4   34 1
    10    5    6 ar
    11    5   13 1
    12    6    7 ar
    13    6   35 1
    14    7    8 ar
    15    7   11 1
    16    8    9 1
    17    9   10 1
    18   10   36 1
    19   10   37 1
    20   10   38 1
    21   11   12 1
    22   12   39 1
    23   12   40 1
    24   12   41 1
    25   13   14 1
    26   13   42 1
    27   14   19 ar
    28   14   15 ar
    29   15   16 ar
    30   15   54 1
    31   16   17 ar
    32   16   43 1
    33   17   23 1
    34   17   18 ar
    35   18   19 ar
    36   18   20 1
    37   20   21 1
    38   20   25 1
    39   21   22 1
    40   21   24 1
    41   21   44 1
    42   22   23 1
    43   22   45 1
    44   22   46 1
    45   23   47 1
    46   23   48 1
    47   24   49 1
    48   25   30 ar
    49   25   26 ar
    50   26   27 ar
    51   26   50 1
    52   27   28 ar
    53   27   51 1
    54   28   29 ar
    55   28   52 1
    56   29   30 ar
    57   29   53 1
    58   30   55 1
@<TRIPOS>MOLECULE
CHEMBL426311
   53    56     0     0     0
SMALL
USER_CHARGES

@<TRIPOS>ATOM
      1 C1         -0.9737   -3.5048    4.5780 C.3       1 <0>         0.0199
      2 O1         -0.8994   -3.2335    3.1769 O.3       1 <0>        -0.2854
      3 C2         -0.1118   -2.1945    2.7902 C.ar      1 <0>         0.1887
      4 C3          0.5785   -1.4571    3.7395 C.ar      1 <0>        -0.2939
      5 C4          1.3826   -0.3964    3.3449 C.ar      1 <0>         0.1841
      6 C5          1.4965   -0.0738    1.9994 C.ar      1 <0>        -0.2324
      7 C6          0.8073   -0.8105    1.0489 C.ar      1 <0>         0.1883
      8 C7          0.0059   -1.8755    1.4427 C.ar      1 <0>         0.0392
      9 O2         -0.6675   -2.6030    0.5091 O.3       1 <0>        -0.3076
     10 C8         -1.9814   -2.1593    0.1647 C.3       1 <0>         0.0328
     11 O3          0.9186   -0.4940   -0.2689 O.3       1 <0>        -0.2869
     12 C9          1.7630    0.6096   -0.6020 C.3       1 <0>         0.0180
     13 N1          2.0788    0.3486    4.3045 N.pl3     1 <0>        -0.6155
     14 C10         2.7049   -0.2940    5.3595 C.ar      1 <0>         0.6520
     15 N2          2.7490   -1.6183    5.3751 N.ar      1 <0>        -0.5681
     16 C11         3.3369   -2.2692    6.3679 C.ar      1 <0>         0.1979
     17 C12         3.9122   -1.5494    7.3992 C.ar      1 <0>        -0.2094
     18 C13         3.8526   -0.1601    7.3530 C.ar      1 <0>         0.5275
     19 N3          3.2497    0.4305    6.3256 N.ar      1 <0>        -0.5505
     20 N4          4.4209    0.6105    8.3576 N.pl3     1 <0>        -0.4961
     21 C14         4.8129   -0.0405    9.6155 C.3       1 <0>         0.1103
     22 C15         5.5463   -1.3418    9.2657 C.3       1 <0>        -0.1414
     23 C16         4.5790   -2.2743    8.5349 C.3       1 <0>        -0.0737
     24 C17         4.6166    1.9766    8.1767 C.ar      1 <0>         0.3174
     25 C18         5.8099    2.4353    7.6284 C.ar      1 <0>        -0.1462
     26 C19         5.9912    3.7954    7.4541 C.ar      1 <0>        -0.0614
     27 C20         4.9689    4.6544    7.8356 C.ar      1 <0>        -0.1499
     28 C21         3.8107    4.1302    8.3734 C.ar      1 <0>         0.1200
     29 N5          3.6633    2.8274    8.5230 N.ar      1 <0>        -0.4721
     30 H1         -1.3664   -2.6305    5.0971 H         1 <0>         0.0619
     31 H2         -1.6334   -4.3555    4.7488 H         1 <0>         0.1170
     32 H3          0.0220   -3.7354    4.9567 H         1 <0>         0.0531
     33 H4          0.4904   -1.7075    4.7863 H         1 <0>         0.1392
     34 H5          2.1220    0.7517    1.6933 H         1 <0>         0.1527
     35 H6         -2.6124   -2.1677    1.0535 H         1 <0>         0.0489
     36 H7         -1.9299   -1.1464   -0.2346 H         1 <0>         0.0498
     37 H8         -2.4044   -2.8253   -0.5874 H         1 <0>         0.1026
     38 H9          1.3918    1.5112   -0.1146 H         1 <0>         0.0633
     39 H10         2.7787    0.4053   -0.2631 H         1 <0>         0.0630
     40 H11         1.7627    0.7543   -1.6824 H         1 <0>         0.1149
     41 H12         2.1226    1.3147    4.2303 H         1 <0>         0.4496
     42 H13         3.3663   -3.3488    6.3720 H         1 <0>         0.2187
     43 H14         5.4757    0.6160   10.1794 H         1 <0>         0.1104
     44 H15         3.9251   -0.2651   10.2066 H         1 <0>         0.0965
     45 H16         6.3966   -1.1197    8.6209 H         1 <0>         0.0844
     46 H17         5.8950   -1.8215   10.1803 H         1 <0>         0.1118
     47 H18         3.8199   -2.6261    9.2336 H         1 <0>         0.1020
     48 H19         5.1292   -3.1299    8.1433 H         1 <0>         0.1050
     49 H20         6.5845    1.7389    7.3429 H         1 <0>         0.1386
     50 H21         6.9072    4.1807    7.0313 H         1 <0>         0.1487
     51 H22         5.0791    5.7218    7.7132 H         1 <0>         0.1494
     52 H23         3.0132    4.7945    8.6718 H         1 <0>         0.1690
     53 H24         2.3446   -2.1185    4.6491 H         1 <0>         0.4440
@<TRIPOS>BOND
     1    1    2 1
     2    1   30 1
     3    1   31 1
     4    1   32 1
     5    2    3 1
     6    3    8 ar
     7    3    4 ar
     8    4    5 ar
     9    4   33 1
    10    5    6 ar
    11    5   13 1
    12    6    7 ar
    13    6   34 1
    14    7    8 ar
    15    7   11 1
    16    8    9 1
    17    9   10 1
    18   10   35 1
    19   10   36 1
    20   10   37 1
    21   11   12 1
    22   12   38 1
    23   12   39 1
    24   12   40 1
    25   13   14 1
    26   13   41 1
    27   14   19 ar
    28   14   15 ar
    29   15   16 ar
    30   15   53 1
    31   16   17 ar
    32   16   42 1
    33   17   23 1
    34   17   18 ar
    35   18   19 ar
    36   18   20 1
    37   20   21 1
    38   20   24 1
    39   21   22 1
    40   21   43 1
    41   21   44 1
    42   22   23 1
    43   22   45 1
    44   22   46 1
    45   23   47 1
    46   23   48 1
    47   24   29 ar
    48   24   25 ar
    49   25   26 ar
    50   25   49 1
    51   26   27 ar
    52   26   50 1
    53   27   28 ar
    54   27   51 1
    55   28   29 ar
    56   28   52 1
@<TRIPOS>MOLECULE
CHEMBL426311__1
   54    57     0     0     0
SMALL
USER_CHARGES

@<TRIPOS>ATOM
      1 C1         -3.4181   -3.4965   -3.1967 C.3       1 <0>         0.0201
      2 O1         -2.2463   -3.2221   -2.4261 O.3       1 <0>        -0.2810
      3 C2         -2.3214   -2.2017   -1.5303 C.ar      1 <0>         0.1895
      4 C3         -3.4999   -1.4850   -1.3931 C.ar      1 <0>        -0.2937
      5 C4         -3.5768   -0.4433   -0.4786 C.ar      1 <0>         0.1615
      6 C5         -2.4738   -0.1189    0.2995 C.ar      1 <0>        -0.2241
      7 C6         -1.2947   -0.8349    0.1638 C.ar      1 <0>         0.1892
      8 C7         -1.2185   -1.8810   -0.7480 C.ar      1 <0>         0.0516
      9 O2         -0.0621   -2.5882   -0.8782 O.3       1 <0>        -0.3067
     10 C8          0.8863   -2.1107   -1.8346 C.3       1 <0>         0.0327
     11 O3         -0.2142   -0.5166    0.9257 O.3       1 <0>        -0.2825
     12 C9         -0.3652    0.5669    1.8451 C.3       1 <0>         0.0173
     13 N1         -4.7673    0.2807   -0.3413 N.pl3     1 <0>        -0.5992
     14 C10        -5.9840   -0.3809   -0.3402 C.ar      1 <0>         0.6556
     15 N2         -5.9991   -1.7059   -0.3362 N.ar      1 <0>        -0.5551
     16 C11        -7.1426   -2.3747   -0.3372 C.ar      1 <0>         0.2260
     17 C12        -8.3344   -1.6730   -0.3410 C.ar      1 <0>        -0.2038
     18 C13        -8.2861   -0.2826   -0.3418 C.ar      1 <0>         0.5235
     19 N3         -7.1041    0.3265   -0.3377 N.ar      1 <0>        -0.5713
     20 N4         -9.4520    0.4702   -0.3372 N.pl3     1 <0>        -0.5491
     21 C14       -10.7271   -0.1947   -0.6404 C.3       1 <0>         0.1043
     22 C15       -10.7710   -1.5128    0.1435 C.3       1 <0>        -0.1409
     23 C16        -9.6400   -2.4183   -0.3467 C.3       1 <0>        -0.0805
     24 C17        -9.4144    1.8316   -0.0500 C.ar      1 <0>         0.3682
     25 C18        -9.5373    2.2618    1.2671 C.ar      1 <0>        -0.0981
     26 C19        -9.4983    3.6175    1.5384 C.ar      1 <0>         0.0219
     27 C20        -9.3370    4.5009    0.4791 C.ar      1 <0>        -0.1084
     28 C21        -9.2212    4.0042   -0.8037 C.ar      1 <0>         0.1571
     29 N5         -9.2566    2.7051   -1.0322 N.ar      1 <0>        -0.4464
     30 H1         -3.2229   -4.3311   -3.8700 H         1 <0>         0.1207
     31 H2         -4.2403   -3.7531   -2.5288 H         1 <0>         0.0516
     32 H3         -3.6847   -2.6145   -3.7790 H         1 <0>         0.0612
     33 H4         -4.3584   -1.7368   -1.9980 H         1 <0>         0.1373
     34 H5         -2.5343    0.6919    1.0104 H         1 <0>         0.1542
     35 H6          1.1905   -1.0980   -1.5702 H         1 <0>         0.0519
     36 H7          1.7593   -2.7633   -1.8376 H         1 <0>         0.1071
     37 H8          0.4323   -2.1066   -2.8256 H         1 <0>         0.0506
     38 H9          0.5682    0.7153    2.3882 H         1 <0>         0.1188
     39 H10        -0.6155    1.4756    1.2978 H         1 <0>         0.0636
     40 H11        -1.1633    0.3361    2.5507 H         1 <0>         0.0633
     41 H12        -4.7399    1.2457   -0.2469 H         1 <0>         0.4501
     42 H13        -7.1441   -3.4547   -0.3354 H         1 <0>         0.2299
     43 H14       -11.5569    0.4431   -0.3358 H         1 <0>         0.1190
     44 H15       -10.7913   -0.3991   -1.7091 H         1 <0>         0.1062
     45 H16       -10.6414   -1.3098    1.2065 H         1 <0>         0.0903
     46 H17       -11.7298   -2.0042   -0.0220 H         1 <0>         0.1227
     47 H18        -9.8597   -2.7533   -1.3604 H         1 <0>         0.1092
     48 H19        -9.5629   -3.2860    0.3085 H         1 <0>         0.1148
     49 H20        -9.6619    1.5469    2.0670 H         1 <0>         0.1879
     50 H21        -9.5915    3.9810    2.5511 H         1 <0>         0.1906
     51 H22        -9.3028    5.5656    0.6570 H         1 <0>         0.1989
     52 H23        -9.0959    4.6876   -1.6306 H         1 <0>         0.2213
     53 H24        -5.1605   -2.1933   -0.3329 H         1 <0>         0.4535
     54 H25        -9.1686    2.3824   -1.9427 H         1 <0>         0.4475
@<TRIPOS>BOND
     1    1    2 1
     2    1   30 1
     3    1   31 1
     4    1   32 1
     5    2    3 1
     6    3    8 ar
     7    3    4 ar
     8    4    5 ar
     9    4   33 1
    10    5    6 ar
    11    5   13 1
    12    6    7 ar
    13    6   34 1
    14    7    8 ar
    15    7   11 1
    16    8    9 1
    17    9   10 1
    18   10   35 1
    19   10   36 1
    20   10   37 1
    21   11   12 1
    22   12   38 1
    23   12   39 1
    24   12   40 1
    25   13   14 1
    26   13   41 1
    27   14   19 ar
    28   14   15 ar
    29   15   16 ar
    30   15   53 1
    31   16   17 ar
    32   16   42 1
    33   17   23 1
    34   17   18 ar
    35   18   19 ar
    36   18   20 1
    37   20   21 1
    38   20   24 1
    39   21   22 1
    40   21   43 1
    41   21   44 1
    42   22   23 1
    43   22   45 1
    44   22   46 1
    45   23   47 1
    46   23   48 1
    47   24   29 ar
    48   24   25 ar
    49   25   26 ar
    50   25   49 1
    51   26   27 ar
    52   26   50 1
    53   27   28 ar
    54   27   51 1
    55   28   29 ar
    56   28   52 1
    57   29   54 1
@<TRIPOS>MOLECULE
CHEMBL383672
   46    49     0     0     0
SMALL
USER_CHARGES

@<TRIPOS>ATOM
      1 C1         -3.4370   -3.9348   -2.2676 C.3       1 <0>         0.0258
      2 O1         -2.2736   -3.5704   -1.5221 O.3       1 <0>        -0.2992
      3 C2         -2.3505   -2.4390   -0.7715 C.ar      1 <0>         0.1697
      4 C3         -3.5230   -1.7001   -0.7496 C.ar      1 <0>        -0.2287
      5 C4         -3.6018   -0.5450    0.0166 C.ar      1 <0>         0.2439
      6 C5         -2.5064   -0.1292    0.7614 C.ar      1 <0>        -0.2636
      7 C6         -1.3332   -0.8671    0.7405 C.ar      1 <0>         0.1713
      8 C7         -1.2555   -2.0265   -0.0217 C.ar      1 <0>         0.0100
      9 O2         -0.1051   -2.7550   -0.0384 O.3       1 <0>        -0.3104
     10 C8          0.8620   -2.4178   -1.0349 C.3       1 <0>         0.0342
     11 O3         -0.2604   -0.4595    1.4701 O.3       1 <0>        -0.2993
     12 C9         -0.4129    0.7380    2.2348 C.3       1 <0>         0.0240
     13 N1         -4.7862    0.2011    0.0378 N.pl3     1 <0>        -0.6329
     14 C10        -6.0111   -0.4404   -0.0585 C.ar      1 <0>         0.5816
     15 N2         -6.0402   -1.7678   -0.0525 N.ar      1 <0>        -0.5535
     16 C11        -7.1832   -2.4262   -0.1416 C.ar      1 <0>         0.2440
     17 C12        -8.3671   -1.6969   -0.2427 C.ar      1 <0>        -0.2526
     18 C13        -9.7865   -2.0378   -0.3571 C.2       1 <0>        -0.1219
     19 C14       -10.4622   -0.8807   -0.4199 C.2       1 <0>         0.0326
     20 N3         -9.5859    0.1767   -0.3547 N.pl3     1 <0>        -0.4119
     21 C15        -8.2998   -0.2880   -0.2461 C.ar      1 <0>         0.3810
     22 N4         -7.1087    0.2923   -0.1476 N.ar      1 <0>        -0.5407
     23 C16        -9.9499    1.5206   -0.3938 C.ar      1 <0>         0.4159
     24 C17       -11.2912    1.8882   -0.5007 C.ar      1 <0>        -0.2463
     25 C18       -11.6025    3.2342   -0.5359 C.ar      1 <0>         0.1931
     26 N5        -10.6246    4.1258   -0.4674 N.ar      1 <0>        -0.5180
     27 C19        -9.3655    3.7459   -0.3667 C.ar      1 <0>         0.3967
     28 N6         -9.0253    2.4723   -0.3243 N.ar      1 <0>        -0.5068
     29 Cl1        -8.1229    4.9551   -0.2808 Cl        1 <0>         0.0416
     30 H1         -3.2413   -4.8535   -2.8206 H         1 <0>         0.1021
     31 H2         -4.2715   -4.0928   -1.5844 H         1 <0>         0.0620
     32 H3         -3.6857   -3.1361   -2.9663 H         1 <0>         0.0532
     33 H4         -4.3754   -2.0228   -1.3290 H         1 <0>         0.1488
     34 H5         -2.5683    0.7697    1.3569 H         1 <0>         0.1377
     35 H6          0.4224   -2.5419   -2.0245 H         1 <0>         0.0432
     36 H7          1.1734   -1.3816   -0.9029 H         1 <0>         0.0431
     37 H8          1.7279   -3.0726   -0.9372 H         1 <0>         0.0914
     38 H9         -1.2234    0.6101    2.9522 H         1 <0>         0.0581
     39 H10         0.5141    0.9493    2.7678 H         1 <0>         0.1036
     40 H11        -0.6457    1.5679    1.5676 H         1 <0>         0.0571
     41 H12        -4.7496    1.1669    0.1200 H         1 <0>         0.4270
     42 H13        -7.1994   -3.5061   -0.1365 H         1 <0>         0.1802
     43 H14       -10.2089   -3.0313   -0.3855 H         1 <0>         0.1696
     44 H15       -11.5350   -0.7928   -0.5086 H         1 <0>         0.1894
     45 H16       -12.0675    1.1392   -0.5551 H         1 <0>         0.1633
     46 H17       -12.6303    3.5556   -0.6185 H         1 <0>         0.1908
@<TRIPOS>BOND
     1    1    2 1
     2    1   30 1
     3    1   31 1
     4    1   32 1
     5    2    3 1
     6    3    8 ar
     7    3    4 ar
     8    4    5 ar
     9    4   33 1
    10    5    6 ar
    11    5   13 1
    12    6    7 ar
    13    6   34 1
    14    7    8 ar
    15    7   11 1
    16    8    9 1
    17    9   10 1
    18   10   35 1
    19   10   36 1
    20   10   37 1
    21   11   12 1
    22   12   38 1
    23   12   39 1
    24   12   40 1
    25   13   14 1
    26   13   41 1
    27   14   22 ar
    28   14   15 ar
    29   15   16 ar
    30   16   17 ar
    31   16   42 1
    32   17   21 ar
    33   17   18 1
    34   18   19 2
    35   18   43 1
    36   19   20 1
    37   19   44 1
    38   20   21 1
    39   20   23 1
    40   21   22 ar
    41   23   28 ar
    42   23   24 ar
    43   24   25 ar
    44   24   45 1
    45   25   26 ar
    46   25   46 1
    47   26   27 ar
    48   27   28 ar
    49   27   29 1
@<TRIPOS>MOLECULE
CHEMBL205316
   51    54     0     0     0
SMALL
USER_CHARGES

@<TRIPOS>ATOM
      1 C1          0.8733    1.7069   -0.1023 C.3       1 <0>         0.0240
      2 O1          0.6827    0.2910   -0.1314 O.3       1 <0>        -0.2960
      3 C2         -0.5948   -0.1571   -0.2390 C.ar      1 <0>         0.1891
      4 C3         -1.6592    0.7345   -0.3224 C.ar      1 <0>        -0.2547
      5 C4         -2.9437    0.2403   -0.4308 C.ar      1 <0>         0.1481
      6 N1         -3.1712   -1.0591   -0.4560 N.ar      1 <0>        -0.4936
      7 C5         -2.1921   -1.9401   -0.3797 C.ar      1 <0>         0.1524
      8 C6         -0.8739   -1.5263   -0.2748 C.ar      1 <0>         0.0293
      9 N2          0.1644   -2.4672   -0.1999 N.pl3     1 <0>        -0.4102
     10 C7          0.5158   -3.3343   -1.2051 C.2       1 <0>         0.0488
     11 C8          1.5467   -4.0979   -0.8102 C.2       1 <0>        -0.1516
     12 C9          1.8813   -3.6876    0.5544 C.ar      1 <0>        -0.2490
     13 C10         0.9806   -2.6522    0.8847 C.ar      1 <0>         0.3777
     14 N3          1.0712   -2.0892    2.0850 N.ar      1 <0>        -0.5675
     15 C11         1.9901   -2.4922    2.9470 C.ar      1 <0>         0.5792
     16 N4          2.8540   -3.4603    2.6657 N.ar      1 <0>        -0.5592
     17 C12         2.8289   -4.0804    1.4980 C.ar      1 <0>         0.2405
     18 N5          2.0537   -1.8809    4.1894 N.pl3     1 <0>        -0.6372
     19 C13         3.0873   -2.2042    5.0765 C.ar      1 <0>         0.2468
     20 C14         4.3483   -2.5180    4.5877 C.ar      1 <0>        -0.2289
     21 C15         5.3722   -2.8383    5.4654 C.ar      1 <0>         0.1697
     22 C16         5.1364   -2.8446    6.8350 C.ar      1 <0>         0.0080
     23 C17         3.8740   -2.5299    7.3235 C.ar      1 <0>         0.1713
     24 C18         2.8524   -2.2052    6.4448 C.ar      1 <0>        -0.2662
     25 O2          3.6423   -2.5359    8.6635 O.3       1 <0>        -0.2996
     26 C19         2.3215   -2.2026    9.0951 C.3       1 <0>         0.0244
     27 O3          6.1418   -3.1596    7.6979 O.3       1 <0>        -0.3104
     28 C20         6.9516   -2.0817    8.1716 C.3       1 <0>         0.0345
     29 O4          6.6071   -3.1465    4.9864 O.3       1 <0>        -0.2995
     30 C21         6.7778   -3.1206    3.5679 C.3       1 <0>         0.0259
     31 H1          1.9368    1.9287   -0.0142 H         1 <0>         0.1058
     32 H2          0.4859    2.1446   -1.0224 H         1 <0>         0.0621
     33 H3          0.3424    2.1275    0.7517 H         1 <0>         0.0622
     34 H4         -1.4830    1.7998   -0.3021 H         1 <0>         0.1487
     35 H5         -3.7745    0.9274   -0.4955 H         1 <0>         0.1681
     36 H6         -2.4202   -2.9955   -0.4038 H         1 <0>         0.1683
     37 H7          0.0343   -3.3931   -2.1700 H         1 <0>         0.1804
     38 H8          2.0355   -4.8680   -1.3886 H         1 <0>         0.1611
     39 H9          3.5354   -4.8665    1.2759 H         1 <0>         0.1758
     40 H10         1.3820   -1.2291    4.4442 H         1 <0>         0.4233
     41 H11         4.5314   -2.5130    3.5234 H         1 <0>         0.1497
     42 H12         1.8723   -1.9570    6.8245 H         1 <0>         0.1365
     43 H13         2.0728   -1.1958    8.7594 H         1 <0>         0.0564
     44 H14         1.6109   -2.9126    8.6718 H         1 <0>         0.0579
     45 H15         2.2731   -2.2451   10.1832 H         1 <0>         0.1033
     46 H16         7.7122   -2.4693    8.8493 H         1 <0>         0.0911
     47 H17         7.4340   -1.5910    7.3263 H         1 <0>         0.0430
     48 H18         6.3261   -1.3626    8.7006 H         1 <0>         0.0426
     49 H19         6.0977   -3.8369    3.1069 H         1 <0>         0.0626
     50 H20         6.5600   -2.1202    3.1939 H         1 <0>         0.0528
     51 H21         7.8060   -3.3849    3.3208 H         1 <0>         0.1018
@<TRIPOS>BOND
     1    1    2 1
     2    1   31 1
     3    1   32 1
     4    1   33 1
     5    2    3 1
     6    3    8 ar
     7    3    4 ar
     8    4    5 ar
     9    4   34 1
    10    5    6 ar
    11    5   35 1
    12    6    7 ar
    13    7    8 ar
    14    7   36 1
    15    8    9 1
    16    9   13 1
    17    9   10 1
    18   10   11 2
    19   10   37 1
    20   11   12 1
    21   11   38 1
    22   12   17 ar
    23   12   13 ar
    24   13   14 ar
    25   14   15 ar
    26   15   16 ar
    27   15   18 1
    28   16   17 ar
    29   17   39 1
    30   18   19 1
    31   18   40 1
    32   19   24 ar
    33   19   20 ar
    34   20   21 ar
    35   20   41 1
    36   21   22 ar
    37   21   29 1
    38   22   23 ar
    39   22   27 1
    40   23   24 ar
    41   23   25 1
    42   24   42 1
    43   25   26 1
    44   26   43 1
    45   26   44 1
    46   26   45 1
    47   27   28 1
    48   28   46 1
    49   28   47 1
    50   28   48 1
    51   29   30 1
    52   30   49 1
    53   30   50 1
    54   30   51 1
@<TRIPOS>MOLECULE
CHEMBL562724
   60    64     0     0     0
SMALL
USER_CHARGES

@<TRIPOS>ATOM
      1 C1         -0.0958    2.0449    0.1864 C.3       1 <0>        -0.1160
      2 C2         -0.1158    0.5568   -0.0503 C.ar      1 <0>        -0.0265
      3 C3         -0.1580    0.0634   -1.3375 C.ar      1 <0>        -0.1781
      4 C4         -0.1767   -1.3108   -1.5650 C.ar      1 <0>         0.2189
      5 C5         -0.1528   -2.1955   -0.5026 C.ar      1 <0>        -0.1731
      6 C6         -0.1095   -1.7058    0.8062 C.ar      1 <0>         0.1183
      7 C7         -0.0861   -0.3174    1.0258 C.ar      1 <0>        -0.0017
      8 N1         -0.0386   -0.1439    2.3999 N.pl3     1 <0>        -0.5819
      9 H1         -0.0164    0.7025    2.8731 H         1 <0>         0.4307
     10 C8         -0.0293   -1.3922    2.9648 C.2       1 <0>         0.3949
     11 N2         -0.0785   -2.3058    2.0220 N.2       1 <0>        -0.5390
     12 C9          0.0172   -1.6677    4.4100 C.2       1 <0>        -0.3019
     13 C10         0.1458   -2.9816    4.8829 C.2       1 <0>         0.3585
     14 C11         0.1866   -3.2003    6.2729 C.2       1 <0>        -0.2728
     15 C12         0.1024   -2.1542    7.1231 C.2       1 <0>         0.1848
     16 N3         -0.0227   -0.8808    6.6652 N.am      1 <0>        -0.6205
     17 H2         -0.0812   -0.1505    7.3008 H         1 <0>         0.4192
     18 C13        -0.0611   -0.6128    5.3467 C.2       1 <0>         0.5568
     19 O1         -0.1683    0.5394    4.9609 O.2       1 <0>        -0.5658
     20 N4          0.2302   -4.0395    4.0028 N.pl3     1 <0>        -0.6819
     21 C14         0.2417   -5.4142    4.5090 C.3       1 <0>         0.0793
     22 C15         0.3412   -6.3894    3.3342 C.3       1 <0>         0.1385
     23 H3         -0.4665   -6.1925    2.6292 H         1 <0>         0.1241
     24 C16         0.2295   -7.8031    3.8440 C.ar      1 <0>        -0.1120
     25 C17         1.3719   -8.5298    4.1228 C.ar      1 <0>        -0.0974
     26 C18         1.2697   -9.8264    4.5904 C.ar      1 <0>        -0.1095
     27 C19         0.0248  -10.3975    4.7797 C.ar      1 <0>        -0.1025
     28 C20        -1.1180   -9.6721    4.5014 C.ar      1 <0>        -0.1063
     29 C21        -1.0164   -8.3720    4.0386 C.ar      1 <0>        -0.0281
     30 Cl1        -2.4516   -7.4578    3.6950 Cl        1 <0>        -0.0588
     31 O2          1.5988   -6.2177    2.6778 O.3       1 <0>        -0.5402
     32 N5         -0.2205   -1.7985   -2.8758 N.pl3     1 <0>        -0.6339
     33 C22        -0.3691   -0.8847   -4.0195 C.3       1 <0>         0.0888
     34 C23         0.7218   -1.2127   -5.0453 C.3       1 <0>         0.0454
     35 O3          0.6848   -2.6109   -5.3409 O.3       1 <0>        -0.3803
     36 C24         0.9599   -3.4537   -4.2194 C.3       1 <0>         0.0460
     37 C25        -0.1131   -3.2400   -3.1516 C.3       1 <0>         0.0882
     38 H4          0.9360    2.3955    0.2083 H         1 <0>         0.0723
     39 H5         -0.6334    2.5480   -0.6174 H         1 <0>         0.0718
     40 H6         -0.5756    2.2677    1.1394 H         1 <0>         0.0612
     41 H7         -0.1770    0.7464   -2.1739 H         1 <0>         0.1287
     42 H8         -0.1677   -3.2602   -0.6830 H         1 <0>         0.1259
     43 H9          0.2849   -4.2040    6.6593 H         1 <0>         0.1526
     44 H10         0.1348   -2.3332    8.1876 H         1 <0>         0.1731
     45 H11         0.2820   -3.8736    3.0485 H         1 <0>         0.4350
     46 H12         1.0985   -5.5514    5.1686 H         1 <0>         0.0768
     47 H13        -0.6775   -5.6052    5.0628 H         1 <0>         0.0838
     48 H14         2.3446   -8.0843    3.9748 H         1 <0>         0.1331
     49 H15         2.1625  -10.3939    4.8078 H         1 <0>         0.1331
     50 H16        -0.0545  -11.4108    5.1448 H         1 <0>         0.1352
     51 H17        -2.0904  -10.1184    4.6490 H         1 <0>         0.1371
     52 H18         2.3644   -6.3772    3.2466 H         1 <0>         0.3747
     53 H19        -1.3514   -1.0198   -4.4722 H         1 <0>         0.0693
     54 H20        -0.2583    0.1461   -3.6826 H         1 <0>         0.0917
     55 H21         0.5466   -0.6429   -5.9579 H         1 <0>         0.1035
     56 H22         1.6976   -0.9530   -4.6348 H         1 <0>         0.0554
     57 H23         0.9560   -4.4962   -4.5377 H         1 <0>         0.1042
     58 H24         1.9365   -3.2022   -3.8059 H         1 <0>         0.0552
     59 H25         0.1671   -3.7683   -2.2403 H         1 <0>         0.0937
     60 H26        -1.0692   -3.6163   -3.5155 H         1 <0>         0.0685
@<TRIPOS>BOND
     1    1    2 1
     2    1   38 1
     3    1   39 1
     4    1   40 1
     5    2    7 ar
     6    2    3 ar
     7    3    4 ar
     8    3   41 1
     9    4    5 ar
    10    4   32 1
    11    5    6 ar
    12    5   42 1
    13    6   11 1
    14    6    7 ar
    15    7    8 1
    16    8    9 1
    17    8   10 1
    18   10   11 2
    19   10   12 1
    20   12   18 1
    21   12   13 2
    22   13   14 1
    23   13   20 1
    24   14   15 2
    25   14   43 1
    26   15   16 1
    27   15   44 1
    28   16   17 1
    29   16   18 am
    30   18   19 2
    31   20   21 1
    32   20   45 1
    33   21   22 1
    34   21   46 1
    35   21   47 1
    36   22   23 1
    37   22   24 1
    38   22   31 1
    39   24   29 ar
    40   24   25 ar
    41   25   26 ar
    42   25   48 1
    43   26   27 ar
    44   26   49 1
    45   27   28 ar
    46   27   50 1
    47   28   29 ar
    48   28   51 1
    49   29   30 1
    50   31   52 1
    51   32   37 1
    52   32   33 1
    53   33   34 1
    54   33   53 1
    55   33   54 1
    56   34   35 1
    57   34   55 1
    58   34   56 1
    59   35   36 1
    60   36   37 1
    61   36   57 1
    62   36   58 1
    63   37   59 1
    64   37   60 1
@<TRIPOS>MOLECULE
CHEMBL475817
   44    46     0     0     0
SMALL
USER_CHARGES

@<TRIPOS>ATOM
      1 C1         -0.0017    1.3736   -0.1910 C.ar      1 <0>        -0.1227
      2 C2          1.1806    2.0845   -0.1665 C.ar      1 <0>        -0.0535
      3 C3          2.3087    1.5355    0.4450 C.ar      1 <0>        -0.1400
      4 C4          2.2325    0.2694    1.0283 C.ar      1 <0>        -0.0072
      5 C5          1.0444   -0.4306    0.9968 C.ar      1 <0>        -0.1880
      6 C6         -0.0704    0.1195    0.3889 C.ar      1 <0>        -0.0389
      7 C7          0.9603   -1.7976    1.6255 C.3       1 <0>         0.5097
      8 F1          0.5806   -1.6719    2.9661 F         1 <0>        -0.1725
      9 F2          0.0126   -2.5675    0.9426 F         1 <0>        -0.1737
     10 F3          2.2098   -2.4226    1.5513 F         1 <0>        -0.1725
     11 C8          3.5788    2.2912    0.4746 C.2       1 <0>         0.5650
     12 O1          4.5597    1.8106    1.0079 O.2       1 <0>        -0.5044
     13 N1          3.6492    3.5131   -0.0898 N.am      1 <0>        -0.6683
     14 C9          4.8211    4.2693    0.0230 C.ar      1 <0>         0.1422
     15 C10         6.0595    3.6375    0.0114 C.ar      1 <0>        -0.0770
     16 C11         7.2201    4.3788    0.1228 C.ar      1 <0>        -0.0975
     17 C12         7.1578    5.7537    0.2461 C.ar      1 <0>         0.0061
     18 C13         5.9180    6.3977    0.2583 C.ar      1 <0>        -0.1128
     19 C14         4.7469    5.6479    0.1404 C.ar      1 <0>        -0.0989
     20 C15         5.8472    7.8677    0.3899 C.2       1 <0>         0.5562
     21 O2          6.8691    8.5191    0.4879 O.2       1 <0>        -0.4893
     22 N2          4.6499    8.4864    0.4014 N.am      1 <0>        -0.6571
     23 C16         4.5846    9.8860    0.4058 C.ar      1 <0>         0.0481
     24 C17         5.6271   10.6427   -0.1279 C.ar      1 <0>        -0.0290
     25 C18         5.5202   12.0216   -0.1024 C.ar      1 <0>        -0.1374
     26 C19         4.3832   12.6036    0.4515 C.ar      1 <0>         0.4056
     27 N3          3.4135   11.8531    0.9489 N.ar      1 <0>        -0.5097
     28 C20         3.4802   10.5350    0.9356 C.ar      1 <0>         0.1338
     29 N4          4.2653   13.9910    0.4829 N.pl3     1 <0>        -0.8435
     30 Cl1         6.7880   13.0137   -0.7521 Cl        1 <0>        -0.0522
     31 Cl2         8.6191    6.6802    0.3864 Cl        1 <0>        -0.0226
     32 H1         -0.8766    1.7990   -0.6599 H         1 <0>         0.1471
     33 H2          1.2330    3.0633   -0.6198 H         1 <0>         0.1374
     34 H3          3.1019   -0.1611    1.5028 H         1 <0>         0.1528
     35 H4         -0.9984   -0.4327    0.3673 H         1 <0>         0.1456
     36 H5          2.8875    3.8682   -0.5742 H         1 <0>         0.4139
     37 H6          6.1145    2.5632   -0.0847 H         1 <0>         0.1557
     38 H7          8.1790    3.8821    0.1139 H         1 <0>         0.1487
     39 H8          3.7856    6.1403    0.1447 H         1 <0>         0.1390
     40 H9          3.8334    7.9627    0.4066 H         1 <0>         0.4109
     41 H10         6.4976   10.1635   -0.5509 H         1 <0>         0.1652
     42 H11         2.6669    9.9554    1.3467 H         1 <0>         0.1655
     43 H12         4.9731   14.5462    0.1201 H         1 <0>         0.4114
     44 H13         3.4754   14.4021    0.8676 H         1 <0>         0.4087
@<TRIPOS>BOND
     1    1    6 ar
     2    1    2 ar
     3    1   32 1
     4    2    3 ar
     5    2   33 1
     6    3    4 ar
     7    3   11 1
     8    4    5 ar
     9    4   34 1
    10    5    6 ar
    11    5    7 1
    12    6   35 1
    13    7    8 1
    14    7    9 1
    15    7   10 1
    16   11   12 2
    17   11   13 am
    18   13   14 1
    19   13   36 1
    20   14   19 ar
    21   14   15 ar
    22   15   16 ar
    23   15   37 1
    24   16   17 ar
    25   16   38 1
    26   17   18 ar
    27   17   31 1
    28   18   19 ar
    29   18   20 1
    30   19   39 1
    31   20   21 2
    32   20   22 am
    33   22   23 1
    34   22   40 1
    35   23   28 ar
    36   23   24 ar
    37   24   25 ar
    38   24   41 1
    39   25   26 ar
    40   25   30 1
    41   26   27 ar
    42   26   29 1
    43   27   28 ar
    44   28   42 1
    45   29   43 1
    46   29   44 1
@<TRIPOS>MOLECULE
CHEMBL459729
   68    72     0     0     0
SMALL
USER_CHARGES

@<TRIPOS>ATOM
      1 C1         -0.0323    1.4986    0.0086 C.3       1 <0>        -0.1129
      2 C2          0.0160   -0.0076    0.0011 C.ar      1 <0>        -0.0312
      3 C3          0.0399   -0.6919   -1.1932 C.ar      1 <0>        -0.1227
      4 C4          0.0844   -2.0781   -1.2100 C.ar      1 <0>        -0.0845
      5 C5          0.1053   -2.7915   -0.0291 C.ar      1 <0>        -0.1065
      6 C6          0.0822   -2.1199    1.1838 C.ar      1 <0>         0.0479
      7 C7          0.0424   -0.7146    1.2070 C.ar      1 <0>         0.0751
      8 N1          0.0339   -0.3341    2.5087 N.2       1 <0>        -0.5364
      9 C8          0.0706   -1.3972    3.2794 C.2       1 <0>         0.4096
     10 N2          0.0931   -2.5284    2.5057 N.pl3     1 <0>        -0.5854
     11 H1          0.1214   -3.4439    2.8251 H         1 <0>         0.4352
     12 C9          0.0743   -1.3771    4.7512 C.2       1 <0>        -0.3120
     13 C10         0.1599   -0.1636    5.4487 C.2       1 <0>         0.3707
     14 C11         0.1598   -0.1899    6.8562 C.2       1 <0>        -0.2751
     15 C12         0.0781   -1.3695    7.5088 C.2       1 <0>         0.1952
     16 N3         -0.0045   -2.5457    6.8332 N.am      1 <0>        -0.6190
     17 H2         -0.0616   -3.3767    7.3303 H         1 <0>         0.4225
     18 C13        -0.0143   -2.5797    5.4877 C.2       1 <0>         0.5607
     19 O1         -0.0948   -3.6480    4.9045 O.2       1 <0>        -0.5690
     20 N4          0.2432    1.0328    4.7688 N.pl3     1 <0>        -0.6895
     21 C14         0.4517    2.2814    5.5061 C.3       1 <0>         0.0924
     22 C15         0.5064    3.4518    4.5221 C.3       1 <0>         0.1296
     23 N5          0.7149    4.7004    5.2594 N.pl3     1 <0>        -0.3688
     24 C16         1.7024    5.5957    5.0426 C.2       1 <0>         0.0761
     25 C17         1.5446    6.6064    5.9293 C.2       1 <0>        -0.1848
     26 C18         0.4226    6.3186    6.7144 C.2       1 <0>         0.0726
     27 N6         -0.0784    5.1795    6.3099 N.2       1 <0>        -0.2794
     28 Cl1         2.5556    8.0107    6.0682 Cl        1 <0>        -0.0338
     29 C19         0.1096   -2.8101   -2.5270 C.3       1 <0>        -0.0466
     30 C20        -1.1061   -3.7367   -2.6212 C.3       1 <0>        -0.1410
     31 C21        -1.0324   -4.5349   -3.9246 C.3       1 <0>        -0.0057
     32 N7          0.1976   -5.3357   -3.9432 N.4       1 <0>        -0.3833
     33 C22         1.3685   -4.4507   -3.9255 C.3       1 <0>        -0.0124
     34 C23         1.3871   -3.6492   -2.6222 C.3       1 <0>        -0.1402
     35 C24         0.2260   -6.1587   -5.1597 C.3       1 <0>        -0.0065
     36 C25         1.4436   -7.0844   -5.1209 C.3       1 <0>        -0.1874
     37 C26         1.4731   -7.9415   -6.3879 C.3       1 <0>         0.0680
     38 F1          2.5864   -8.7880   -6.3524 F         1 <0>        -0.2019
     39 H3          0.9832    1.8947    0.0072 H         1 <0>         0.0730
     40 H4         -0.5604    1.8496   -0.8779 H         1 <0>         0.0687
     41 H5         -0.5545    1.8409    0.9020 H         1 <0>         0.0710
     42 H6          0.0236   -0.1451   -2.1244 H         1 <0>         0.1285
     43 H7          0.1392   -3.8708   -0.0494 H         1 <0>         0.1158
     44 H8          0.2253    0.7327    7.4139 H         1 <0>         0.1577
     45 H9          0.0788   -1.3782    8.5888 H         1 <0>         0.1782
     46 H10         0.1637    1.0479    3.8021 H         1 <0>         0.4294
     47 H11        -0.3710    2.4325    6.2050 H         1 <0>         0.0917
     48 H12         1.3907    2.2257    6.0569 H         1 <0>         0.0812
     49 H13         1.3291    3.3008    3.8233 H         1 <0>         0.1078
     50 H14        -0.4326    3.5075    3.9713 H         1 <0>         0.0986
     51 H15         2.4791    5.5188    4.2961 H         1 <0>         0.1851
     52 H16         0.0343    6.9330    7.5132 H         1 <0>         0.1955
     53 H17         0.0847   -2.0900   -3.3448 H         1 <0>         0.0983
     54 H18        -1.1076   -4.4224   -1.7740 H         1 <0>         0.0891
     55 H19        -2.0192   -3.1414   -2.6102 H         1 <0>         0.1163
     56 H20        -1.8965   -5.1955   -3.9950 H         1 <0>         0.1318
     57 H21        -1.0312   -3.8483   -4.7711 H         1 <0>         0.1310
     58 H22         2.2768   -5.0491   -3.9966 H         1 <0>         0.1320
     59 H23         1.3185   -3.7658   -4.7720 H         1 <0>         0.1315
     60 H24         2.2562   -2.9914   -2.6118 H         1 <0>         0.1157
     61 H25         1.4373   -4.3332   -1.7750 H         1 <0>         0.0889
     62 H26        -0.6835   -6.7568   -5.2151 H         1 <0>         0.1353
     63 H27         0.2893   -5.5117   -6.0347 H         1 <0>         0.1343
     64 H28         2.3531   -6.4863   -5.0655 H         1 <0>         0.0994
     65 H29         1.3803   -7.7314   -4.2460 H         1 <0>         0.0989
     66 H30         0.5636   -8.5396   -6.4433 H         1 <0>         0.0864
     67 H31         1.5364   -7.2946   -7.2629 H         1 <0>         0.0863
     68 H32         0.2190   -5.9363   -3.1327 H         1 <0>         0.4231
@<TRIPOS>BOND
     1    1    2 1
     2    1   39 1
     3    1   40 1
     4    1   41 1
     5    2    7 ar
     6    2    3 ar
     7    3    4 ar
     8    3   42 1
     9    4    5 ar
    10    4   29 1
    11    5    6 ar
    12    5   43 1
    13    6   10 1
    14    6    7 ar
    15    7    8 1
    16    8    9 2
    17    9   10 1
    18    9   12 1
    19   10   11 1
    20   12   18 1
    21   12   13 2
    22   13   14 1
    23   13   20 1
    24   14   15 2
    25   14   44 1
    26   15   16 1
    27   15   45 1
    28   16   17 1
    29   16   18 am
    30   18   19 2
    31   20   21 1
    32   20   46 1
    33   21   22 1
    34   21   47 1
    35   21   48 1
    36   22   23 1
    37   22   49 1
    38   22   50 1
    39   23   27 1
    40   23   24 1
    41   24   25 2
    42   24   51 1
    43   25   26 1
    44   25   28 1
    45   26   27 2
    46   26   52 1
    47   29   34 1
    48   29   30 1
    49   29   53 1
    50   30   31 1
    51   30   54 1
    52   30   55 1
    53   31   32 1
    54   31   56 1
    55   31   57 1
    56   32   33 1
    57   32   35 1
    58   32   68 1
    59   33   34 1
    60   33   58 1
    61   33   59 1
    62   34   60 1
    63   34   61 1
    64   35   36 1
    65   35   62 1
    66   35   63 1
    67   36   37 1
    68   36   64 1
    69   36   65 1
    70   37   38 1
    71   37   66 1
    72   37   67 1
@<TRIPOS>MOLECULE
CHEMBL482968
   54    57     0     0     0
SMALL
USER_CHARGES

@<TRIPOS>ATOM
      1 C1          0.1956   -8.1849    0.9094 C.3       1 <0>        -0.0785
      2 C2          0.1293   -6.7057    0.6288 C.2       1 <0>         0.0885
      3 C3          0.1319   -5.6909    1.5895 C.2       1 <0>        -0.2739
      4 C4          0.0607   -4.4980    0.9369 C.2       1 <0>         0.3068
      5 N1          0.0151   -4.7636   -0.3942 N.pl3     1 <0>        -0.4950
      6 N2          0.0654   -6.1540   -0.5558 N.2       1 <0>        -0.2801
      7 H1         -0.0392   -4.1072   -1.1063 H         1 <0>         0.4357
      8 N3          0.0383   -3.2359    1.5267 N.pl3     1 <0>        -0.6259
      9 C5         -0.0499   -3.1163    2.9062 C.ar      1 <0>         0.4764
     10 C6         -0.1829   -1.8625    3.4985 C.ar      1 <0>        -0.3500
     11 C7         -0.2684   -1.7891    4.8868 C.ar      1 <0>         0.4670
     12 N4         -0.2207   -2.9110    5.5990 N.ar      1 <0>        -0.5905
     13 C8         -0.0933   -4.0907    5.0014 C.ar      1 <0>         0.4457
     14 N5         -0.0141   -4.1975    3.6794 N.ar      1 <0>        -0.5725
     15 C9         -0.0437   -5.3108    5.8245 C.2       1 <0>        -0.1368
     16 C10        -0.0261   -6.5180    5.2356 C.2       1 <0>        -0.0158
     17 C11        -0.0947   -7.7396    6.0570 C.ar      1 <0>        -0.0835
     18 C12        -0.1840   -7.6460    7.4485 C.ar      1 <0>        -0.1003
     19 C13        -0.2478   -8.7936    8.2106 C.ar      1 <0>        -0.1231
     20 C14        -0.2236  -10.0356    7.6008 C.ar      1 <0>        -0.1032
     21 C15        -0.1348  -10.1361    6.2234 C.ar      1 <0>        -0.1213
     22 C16        -0.0766   -8.9972    5.4478 C.ar      1 <0>        -0.0908
     23 N6         -0.4010   -0.5618    5.5181 N.pl3     1 <0>        -0.6188
     24 C17        -0.2758   -0.4454    6.9792 C.3       1 <0>         0.1037
     25 C18         0.7164    0.6792    7.2935 C.3       1 <0>        -0.0227
     26 N7          0.2862    1.9120    6.6219 N.4       1 <0>        -0.3852
     27 C19         0.3403    1.7332    5.1655 C.3       1 <0>        -0.0217
     28 C20        -0.6649    0.6617    4.7452 C.3       1 <0>         0.0996
     29 C21         1.1746    3.0152    7.0113 C.3       1 <0>        -0.0471
     30 H2         -0.8145   -8.5793    1.0198 H         1 <0>         0.0807
     31 H3          0.6944   -8.6897    0.0821 H         1 <0>         0.0762
     32 H4          0.7547   -8.3554    1.8294 H         1 <0>         0.0794
     33 H5          0.1811   -5.8284    2.6596 H         1 <0>         0.1832
     34 H6          0.0843   -2.4408    0.9729 H         1 <0>         0.4221
     35 H7         -0.2185   -0.9676    2.8949 H         1 <0>         0.1410
     36 H8         -0.0216   -5.2351    6.9016 H         1 <0>         0.1430
     37 H9          0.0384   -6.5933    4.1601 H         1 <0>         0.1401
     38 H10        -0.2026   -6.6774    7.9258 H         1 <0>         0.1261
     39 H11        -0.3164   -8.7229    9.2861 H         1 <0>         0.1262
     40 H12        -0.2738  -10.9309    8.2027 H         1 <0>         0.1261
     41 H13        -0.1161  -11.1088    5.7544 H         1 <0>         0.1287
     42 H14        -0.0122   -9.0771    4.3727 H         1 <0>         0.1300
     43 H15        -1.2475   -0.2082    7.4123 H         1 <0>         0.0911
     44 H16         0.0927   -1.3848    7.3912 H         1 <0>         0.1398
     45 H17         0.7492    0.8444    8.3704 H         1 <0>         0.1444
     46 H18         1.7080    0.3988    6.9383 H         1 <0>         0.1323
     47 H19         0.0960    2.6751    4.6743 H         1 <0>         0.1450
     48 H20         1.3433    1.4209    4.8747 H         1 <0>         0.1335
     49 H21        -0.5535    0.4539    3.6810 H         1 <0>         0.1288
     50 H22        -1.6766    1.0126    4.9489 H         1 <0>         0.0961
     51 H23         2.1975    2.7788    6.7180 H         1 <0>         0.1218
     52 H24         0.8564    3.9311    6.5134 H         1 <0>         0.1255
     53 H25         1.1293    3.1543    8.0915 H         1 <0>         0.1264
     54 H26        -0.6592    2.1315    6.8977 H         1 <0>         0.4258
@<TRIPOS>BOND
     1    1    2 1
     2    1   30 1
     3    1   31 1
     4    1   32 1
     5    2    3 1
     6    2    6 2
     7    3   33 1
     8    3    4 2
     9    4    8 1
    10    4    5 1
    11    5    7 1
    12    5    6 1
    13    8    9 1
    14    8   34 1
    15    9   14 ar
    16    9   10 ar
    17   10   11 ar
    18   10   35 1
    19   11   12 ar
    20   11   23 1
    21   12   13 ar
    22   13   14 ar
    23   13   15 1
    24   15   16 2
    25   15   36 1
    26   16   17 1
    27   16   37 1
    28   17   22 ar
    29   17   18 ar
    30   18   19 ar
    31   18   38 1
    32   19   20 ar
    33   19   39 1
    34   20   21 ar
    35   20   40 1
    36   21   22 ar
    37   21   41 1
    38   22   42 1
    39   23   28 1
    40   23   24 1
    41   24   25 1
    42   24   43 1
    43   24   44 1
    44   25   26 1
    45   25   45 1
    46   25   46 1
    47   26   27 1
    48   26   29 1
    49   26   54 1
    50   27   28 1
    51   27   47 1
    52   27   48 1
    53   28   49 1
    54   28   50 1
    55   29   51 1
    56   29   52 1
    57   29   53 1
@<TRIPOS>MOLECULE
CHEMBL482968__1
   55    58     0     0     0
SMALL
USER_CHARGES

@<TRIPOS>ATOM
      1 C1          0.7214   -0.2663   -2.4222 C.3       1 <0>        -0.0896
      2 C2          0.7310   -0.8132   -1.0180 C.2       1 <0>         0.1183
      3 C3          0.2120   -2.0476   -0.6184 C.2       1 <0>        -0.2385
      4 C4          0.4140   -2.1711    0.7225 C.2       1 <0>         0.2867
      5 N1          1.0419   -1.0437    1.1458 N.pl3     1 <0>        -0.5013
      6 N2          1.2317   -0.2152    0.0324 N.2       1 <0>        -0.2605
      7 H1          1.3135   -0.8484    2.0563 H         1 <0>         0.4322
      8 N3          0.0439   -3.2554    1.5154 N.pl3     1 <0>        -0.6090
      9 C5          0.1546   -3.1750    2.8961 C.ar      1 <0>         0.4957
     10 C6          0.1324   -1.9371    3.5347 C.ar      1 <0>        -0.3535
     11 C7          0.2461   -1.9033    4.9224 C.ar      1 <0>         0.5251
     12 N4          0.3713   -3.0463    5.5904 N.ar      1 <0>        -0.5525
     13 C8          0.3887   -4.2099    4.9493 C.ar      1 <0>         0.5207
     14 N5          0.2776   -4.2790    3.6270 N.ar      1 <0>        -0.5647
     15 C9          0.5296   -5.4543    5.7239 C.2       1 <0>        -0.2363
     16 C10         0.6385   -5.4039    7.0618 C.2       1 <0>         0.0998
     17 C11         0.7794   -6.6492    7.8370 C.ar      1 <0>        -0.1304
     18 C12         0.8059   -7.8841    7.1832 C.ar      1 <0>        -0.0787
     19 C13         0.9380   -9.0454    7.9153 C.ar      1 <0>        -0.1241
     20 C14         1.0442   -8.9899    9.2940 C.ar      1 <0>        -0.0698
     21 C15         1.0183   -7.7708    9.9483 C.ar      1 <0>        -0.1245
     22 C16         0.8930   -6.6008    9.2290 C.ar      1 <0>        -0.0687
     23 N6          0.2292   -0.6931    5.5989 N.pl3     1 <0>        -0.5876
     24 C17         0.5614   -0.6220    7.0302 C.3       1 <0>         0.0889
     25 C18         1.6111    0.4759    7.2312 C.3       1 <0>        -0.0237
     26 N7          1.1165    1.7352    6.6605 N.4       1 <0>        -0.3873
     27 C19         0.9612    1.5985    5.2068 C.3       1 <0>        -0.0238
     28 C20        -0.1153    0.5570    4.9042 C.3       1 <0>         0.0845
     29 C21         2.0737    2.8112    6.9499 C.3       1 <0>        -0.0496
     30 H2         -0.1921    0.3062   -2.5829 H         1 <0>         0.0915
     31 H3          1.5862    0.3815   -2.5657 H         1 <0>         0.0851
     32 H4          0.7632   -1.0911   -3.1336 H         1 <0>         0.0909
     33 H5         -0.2649   -2.7744   -1.2592 H         1 <0>         0.1692
     34 H6         -0.2912   -4.0664    1.1020 H         1 <0>         0.4507
     35 H7          0.0299   -1.0244    2.9665 H         1 <0>         0.1793
     36 H8          0.5453   -6.4075    5.2163 H         1 <0>         0.1645
     37 H9          0.6228   -4.4507    7.5694 H         1 <0>         0.1470
     38 H10         0.7228   -7.9289    6.1073 H         1 <0>         0.1294
     39 H11         0.9583  -10.0004    7.4115 H         1 <0>         0.1370
     40 H12         1.1475   -9.9026    9.8621 H         1 <0>         0.1375
     41 H13         1.1014   -7.7353   11.0245 H         1 <0>         0.1378
     42 H14         0.8778   -5.6498    9.7406 H         1 <0>         0.1330
     43 H15        -0.3345   -0.3813    7.6026 H         1 <0>         0.1122
     44 H16         0.9646   -1.5792    7.3607 H         1 <0>         0.1449
     45 H17         1.7987    0.6087    8.2967 H         1 <0>         0.1566
     46 H18         2.5368    0.1895    6.7320 H         1 <0>         0.1374
     47 H19         0.6699    2.5584    4.7805 H         1 <0>         0.1589
     48 H20         1.9066    1.2781    4.7689 H         1 <0>         0.1387
     49 H21        -0.1592    0.3788    3.8297 H         1 <0>         0.1301
     50 H22        -1.0806    0.9187    5.2582 H         1 <0>         0.1200
     51 H23         3.0399    2.5664    6.5087 H         1 <0>         0.1254
     52 H24         1.7077    3.7467    6.5267 H         1 <0>         0.1318
     53 H25         2.1839    2.9191    8.0289 H         1 <0>         0.1322
     54 H26         0.2900   -5.1446    3.1895 H         1 <0>         0.4509
     55 H27         0.2241    1.9623    7.0730 H         1 <0>         0.4301
@<TRIPOS>BOND
     1    1    2 1
     2    1   30 1
     3    1   31 1
     4    1   32 1
     5    2    3 1
     6    2    6 2
     7    3   33 1
     8    3    4 2
     9    4    8 1
    10    4    5 1
    11    5    7 1
    12    5    6 1
    13    8    9 1
    14    8   34 1
    15    9   14 ar
    16    9   10 ar
    17   10   11 ar
    18   10   35 1
    19   11   12 ar
    20   11   23 1
    21   12   13 ar
    22   13   14 ar
    23   13   15 1
    24   14   54 1
    25   15   16 2
    26   15   36 1
    27   16   17 1
    28   16   37 1
    29   17   22 ar
    30   17   18 ar
    31   18   19 ar
    32   18   38 1
    33   19   20 ar
    34   19   39 1
    35   20   21 ar
    36   20   40 1
    37   21   22 ar
    38   21   41 1
    39   22   42 1
    40   23   28 1
    41   23   24 1
    42   24   25 1
    43   24   43 1
    44   24   44 1
    45   25   26 1
    46   25   45 1
    47   25   46 1
    48   26   27 1
    49   26   29 1
    50   26   55 1
    51   27   28 1
    52   27   47 1
    53   27   48 1
    54   28   49 1
    55   28   50 1
    56   29   51 1
    57   29   52 1
    58   29   53 1
@<TRIPOS>MOLECULE
CHEMBL482968__2
   55    58     0     0     0
SMALL
USER_CHARGES

@<TRIPOS>ATOM
      1 C1          0.1954   -6.9368    1.8908 C.3       1 <0>        -0.1105
      2 C2          0.1588   -6.1785    0.5890 C.2       1 <0>         0.1553
      3 C3          0.1152   -4.8338    0.4518 C.2       1 <0>        -0.2711
      4 C4          0.0931   -4.5414   -0.9216 C.2       1 <0>         0.2850
      5 N1          0.1227   -5.6765   -1.5795 N.2       1 <0>        -0.3665
      6 N2          0.1698   -6.7206   -0.6470 N.pl3     1 <0>        -0.4343
      7 H1          0.2028   -7.6678   -0.8534 H         1 <0>         0.4564
      8 N3          0.0470   -3.2619   -1.4898 N.pl3     1 <0>        -0.5893
      9 C5          0.1391   -3.1103   -2.8655 C.ar      1 <0>         0.5016
     10 C6          0.2300   -1.8402   -3.4307 C.ar      1 <0>        -0.3302
     11 C7          0.3207   -1.7346   -4.8165 C.ar      1 <0>         0.5143
     12 N4          0.3176   -2.8422   -5.5523 N.ar      1 <0>        -0.5565
     13 C8          0.2295   -4.0381   -4.9803 C.ar      1 <0>         0.5113
     14 N5          0.1472   -4.1756   -3.6613 N.ar      1 <0>        -0.5571
     15 C9          0.2287   -5.2416   -5.8289 C.2       1 <0>        -0.2261
     16 C10         0.3164   -5.1220   -7.1640 C.2       1 <0>         0.0861
     17 C11         0.3156   -6.3263   -8.0133 C.ar      1 <0>        -0.1243
     18 C12         0.2180   -7.5942   -7.4336 C.ar      1 <0>        -0.0821
     19 C13         0.2174   -8.7167   -8.2349 C.ar      1 <0>        -0.1237
     20 C14         0.3136   -8.5899   -9.6095 C.ar      1 <0>        -0.0747
     21 C15         0.4106   -7.3377  -10.1906 C.ar      1 <0>        -0.1239
     22 C16         0.4066   -6.2058   -9.4026 C.ar      1 <0>        -0.0718
     23 N6          0.4125   -0.4903   -5.4212 N.pl3     1 <0>        -0.5934
     24 C17         0.2872   -0.3472   -6.8800 C.3       1 <0>         0.0911
     25 C18        -0.7424    0.7488   -7.1738 C.3       1 <0>        -0.0231
     26 N7         -0.3570    1.9813   -6.4748 N.4       1 <0>        -0.3876
     27 C19        -0.4088    1.7697   -5.0227 C.3       1 <0>        -0.0230
     28 C20         0.6317    0.7249   -4.6217 C.3       1 <0>         0.0880
     29 C21        -1.2821    3.0611   -6.8438 C.3       1 <0>        -0.0489
     30 H2          1.2312   -7.0828    2.1972 H         1 <0>         0.0996
     31 H3         -0.3336   -6.3695    2.6566 H         1 <0>         0.1025
     32 H4         -0.2850   -7.9064    1.7601 H         1 <0>         0.0872
     33 H5          0.0994   -4.1128    1.2557 H         1 <0>         0.1697
     34 H6         -0.0493   -2.4819   -0.9212 H         1 <0>         0.4584
     35 H7          0.2299   -0.9575   -2.8084 H         1 <0>         0.1820
     36 H8          0.1577   -6.2203   -5.3779 H         1 <0>         0.1600
     37 H9          0.3874   -4.1433   -7.6150 H         1 <0>         0.1467
     38 H10         0.1435   -7.6947   -6.3609 H         1 <0>         0.1281
     39 H11         0.1420   -9.6972   -7.7884 H         1 <0>         0.1353
     40 H12         0.3134   -9.4725  -10.2319 H         1 <0>         0.1361
     41 H13         0.4857   -7.2464  -11.2641 H         1 <0>         0.1366
     42 H14         0.4779   -5.2290   -9.8578 H         1 <0>         0.1325
     43 H15         1.2513   -0.0674   -7.3046 H         1 <0>         0.1086
     44 H16        -0.0474   -1.2898   -7.3131 H         1 <0>         0.1430
     45 H17        -0.7780    0.9357   -8.2471 H         1 <0>         0.1539
     46 H18        -1.7247    0.4269   -6.8281 H         1 <0>         0.1365
     47 H19        -0.1986    2.7088   -4.5109 H         1 <0>         0.1554
     48 H20        -1.4012    1.4168   -4.7420 H         1 <0>         0.1380
     49 H21         0.5247    0.4908   -3.5625 H         1 <0>         0.1356
     50 H22         1.6312    1.1148   -4.8145 H         1 <0>         0.1144
     51 H23        -2.2969    2.7833   -6.5591 H         1 <0>         0.1246
     52 H24        -0.9970    3.9767   -6.3255 H         1 <0>         0.1306
     53 H25        -1.2386    3.2246   -7.9206 H         1 <0>         0.1308
     54 H26         0.0886   -5.0632   -3.2745 H         1 <0>         0.4537
     55 H27         0.5810    2.2391   -6.7426 H         1 <0>         0.4293
@<TRIPOS>BOND
     1    1    2 1
     2    1   30 1
     3    1   31 1
     4    1   32 1
     5    2    6 1
     6    2    3 2
     7    3    4 1
     8    3   33 1
     9    4    5 2
    10    4    8 1
    11    5    6 1
    12    6    7 1
    13    8    9 1
    14    8   34 1
    15    9   14 ar
    16    9   10 ar
    17   10   11 ar
    18   10   35 1
    19   11   12 ar
    20   11   23 1
    21   12   13 ar
    22   13   14 ar
    23   13   15 1
    24   14   54 1
    25   15   16 2
    26   15   36 1
    27   16   17 1
    28   16   37 1
    29   17   22 ar
    30   17   18 ar
    31   18   19 ar
    32   18   38 1
    33   19   20 ar
    34   19   39 1
    35   20   21 ar
    36   20   40 1
    37   21   22 ar
    38   21   41 1
    39   22   42 1
    40   23   28 1
    41   23   24 1
    42   24   25 1
    43   24   43 1
    44   24   44 1
    45   25   26 1
    46   25   45 1
    47   25   46 1
    48   26   27 1
    49   26   29 1
    50   26   55 1
    51   27   28 1
    52   27   47 1
    53   27   48 1
    54   28   49 1
    55   28   50 1
    56   29   51 1
    57   29   52 1
    58   29   53 1
@<TRIPOS>MOLECULE
CHEMBL482968__3
   54    57     0     0     0
SMALL
USER_CHARGES

@<TRIPOS>ATOM
      1 C1          0.5340   -8.1342   -0.9011 C.3       1 <0>        -0.0985
      2 C2          0.2818   -6.6696   -0.6515 C.2       1 <0>         0.0986
      3 C3          0.3099   -5.6872   -1.5806 C.2       1 <0>        -0.2709
      4 C4          0.0214   -4.4745   -0.9340 C.2       1 <0>         0.3045
      5 N1         -0.1720   -4.7284    0.3389 N.2       1 <0>        -0.3234
      6 N2         -0.0180   -6.1063    0.5378 N.pl3     1 <0>        -0.4646
      7 H1         -0.1092   -6.5738    1.3828 H         1 <0>         0.4427
      8 N3         -0.0474   -3.2142   -1.5414 N.pl3     1 <0>        -0.6097
      9 C5          0.0540   -3.1024   -2.9203 C.ar      1 <0>         0.4788
     10 C6          0.0679   -1.8485   -3.5273 C.ar      1 <0>        -0.3501
     11 C7          0.1711   -1.7830   -4.9147 C.ar      1 <0>         0.4660
     12 N4          0.2526   -2.9122   -5.6124 N.ar      1 <0>        -0.5923
     13 C8          0.2365   -4.0917   -5.0011 C.ar      1 <0>         0.4419
     14 N5          0.1447   -4.1905   -3.6792 N.ar      1 <0>        -0.5746
     15 C9          0.3283   -5.3199   -5.8082 C.2       1 <0>        -0.1311
     16 C10         0.3390   -6.5204   -5.2056 C.2       1 <0>        -0.0221
     17 C11         0.4985   -7.7462   -6.0078 C.ar      1 <0>        -0.0811
     18 C12         0.6448   -7.6633   -7.3952 C.ar      1 <0>        -0.1011
     19 C13         0.7942   -8.8147   -8.1394 C.ar      1 <0>        -0.1220
     20 C14         0.7989  -10.0500   -7.5157 C.ar      1 <0>        -0.1045
     21 C15         0.6545  -10.1400   -6.1423 C.ar      1 <0>        -0.1213
     22 C16         0.5101   -8.9968   -5.3844 C.ar      1 <0>        -0.0930
     23 N6          0.1882   -0.5562   -5.5602 N.pl3     1 <0>        -0.6197
     24 C17         0.0240   -0.4669   -7.0194 C.3       1 <0>         0.1048
     25 C18        -1.0646    0.5677   -7.3233 C.3       1 <0>        -0.0229
     26 N7         -0.7252    1.8395   -6.6727 N.4       1 <0>        -0.3851
     27 C19        -0.7346    1.6731   -5.2138 C.3       1 <0>        -0.0219
     28 C20         0.3648    0.6937   -4.8047 C.3       1 <0>         0.1000
     29 C21        -1.7102    2.8605   -7.0536 C.3       1 <0>        -0.0470
     30 H2         -0.4062   -8.6282   -1.1466 H         1 <0>         0.0850
     31 H3          1.2310   -8.2465   -1.7316 H         1 <0>         0.0889
     32 H4          0.9596   -8.5874   -0.0058 H         1 <0>         0.0753
     33 H5          0.5180   -5.8130   -2.6328 H         1 <0>         0.1798
     34 H6         -0.1659   -2.4197   -0.9978 H         1 <0>         0.4263
     35 H7         -0.0001   -0.9477   -2.9354 H         1 <0>         0.1412
     36 H8          0.3871   -5.2555   -6.8847 H         1 <0>         0.1423
     37 H9          0.2306   -6.5872   -4.1331 H         1 <0>         0.1396
     38 H10         0.6406   -6.6999   -7.8834 H         1 <0>         0.1265
     39 H11         0.9073   -8.7523   -9.2116 H         1 <0>         0.1263
     40 H12         0.9155  -10.9484   -8.1037 H         1 <0>         0.1259
     41 H13         0.6588  -11.1075   -5.6625 H         1 <0>         0.1279
     42 H14         0.4020   -9.0683   -4.3122 H         1 <0>         0.1280
     43 H15         0.9636   -0.1546   -7.4753 H         1 <0>         0.0904
     44 H16        -0.2732   -1.4382   -7.4147 H         1 <0>         0.1384
     45 H17        -1.1329    0.7175   -8.4008 H         1 <0>         0.1438
     46 H18        -2.0220    0.2098   -6.9446 H         1 <0>         0.1321
     47 H19        -0.5598    2.6375   -4.7369 H         1 <0>         0.1449
     48 H20        -1.7020    1.2818   -4.8989 H         1 <0>         0.1336
     49 H21         0.2927    0.4893   -3.7365 H         1 <0>         0.1296
     50 H22         1.3393    1.1252   -5.0331 H         1 <0>         0.0956
     51 H23        -2.7036    2.5432   -6.7366 H         1 <0>         0.1216
     52 H24        -1.4593    3.8053   -6.5713 H         1 <0>         0.1254
     53 H25        -1.6986    2.9908   -8.1358 H         1 <0>         0.1260
     54 H26         0.1929    2.1337   -6.9705 H         1 <0>         0.4256
@<TRIPOS>BOND
     1    1    2 1
     2    1   30 1
     3    1   31 1
     4    1   32 1
     5    2    6 1
     6    2    3 2
     7    3    4 1
     8    3   33 1
     9    4    5 2
    10    4    8 1
    11    5    6 1
    12    6    7 1
    13    8    9 1
    14    8   34 1
    15    9   14 ar
    16    9   10 ar
    17   10   11 ar
    18   10   35 1
    19   11   12 ar
    20   11   23 1
    21   12   13 ar
    22   13   14 ar
    23   13   15 1
    24   15   16 2
    25   15   36 1
    26   16   17 1
    27   16   37 1
    28   17   22 ar
    29   17   18 ar
    30   18   19 ar
    31   18   38 1
    32   19   20 ar
    33   19   39 1
    34   20   21 ar
    35   20   40 1
    36   21   22 ar
    37   21   41 1
    38   22   42 1
    39   23   28 1
    40   23   24 1
    41   24   25 1
    42   24   43 1
    43   24   44 1
    44   25   26 1
    45   25   45 1
    46   25   46 1
    47   26   27 1
    48   26   29 1
    49   26   54 1
    50   27   28 1
    51   27   47 1
    52   27   48 1
    53   28   49 1
    54   28   50 1
    55   29   51 1
    56   29   52 1
    57   29   53 1
@<TRIPOS>MOLECULE
CHEMBL488089
   51    54     0     0     0
SMALL
USER_CHARGES

@<TRIPOS>ATOM
      1 C1         -1.4972    0.1733    0.8287 C.3       1 <0>        -0.6571
      2 S1          0.0951    0.9606    0.4612 S.o2      1 <0>         2.4877
      3 O1         -0.1128    2.1949   -0.2115 O.2       1 <0>        -0.9169
      4 O2          0.9501    0.8879    1.5939 O.2       1 <0>        -0.9354
      5 C2          0.8503   -0.0843   -0.7399 C.ar      1 <0>        -0.6441
      6 C3          1.9662   -0.8287   -0.4048 C.ar      1 <0>        -0.0218
      7 C4          2.5585   -1.6483   -1.3469 C.ar      1 <0>        -0.1259
      8 C5          2.0350   -1.7242   -2.6243 C.ar      1 <0>        -0.0647
      9 C6          0.9190   -0.9807   -2.9590 C.ar      1 <0>        -0.1138
     10 C7          0.3239   -0.1641   -2.0153 C.ar      1 <0>        -0.0267
     11 C8         -0.8961    0.6425   -2.3787 C.3       1 <0>         0.1449
     12 N1         -0.4923    2.0046   -2.7362 N.pl3     1 <0>        -0.6731
     13 C9         -1.4356    2.9084   -3.1971 C.ar      1 <0>         0.5337
     14 C10        -1.0608    4.2080   -3.5462 C.ar      1 <0>        -0.4039
     15 C11        -2.0349    5.0749   -4.0008 C.ar      1 <0>         0.2714
     16 N2         -3.2874    4.6523   -4.0921 N.ar      1 <0>        -0.5891
     17 C12        -3.6147    3.4139   -3.7541 C.ar      1 <0>         0.6187
     18 N3         -2.7095    2.5500   -3.3188 N.ar      1 <0>        -0.6176
     19 N4         -4.9351    3.0107   -3.8634 N.pl3     1 <0>        -0.6282
     20 C13        -5.9238    3.9387   -4.2118 C.ar      1 <0>         0.1424
     21 C14        -7.0003    3.5493   -4.9986 C.ar      1 <0>        -0.1074
     22 C15        -7.9755    4.4609   -5.3433 C.ar      1 <0>        -0.1156
     23 C16        -7.8887    5.7809   -4.9047 C.ar      1 <0>         0.1270
     24 C17        -6.8088    6.1610   -4.1179 C.ar      1 <0>        -0.1210
     25 C18        -5.8360    5.2527   -3.7673 C.ar      1 <0>        -0.0554
     26 C19        -7.0012    7.6285   -3.8112 C.3       1 <0>        -0.1147
     27 C20        -8.2925    7.9864   -4.5156 C.2       1 <0>         0.5285
     28 O3         -8.8258    9.0756   -4.5325 O.2       1 <0>        -0.5033
     29 N5         -8.7368    6.8709   -5.1185 N.am      1 <0>        -0.6600
     30 C21         0.3739    4.6540   -3.4289 C.3       1 <0>         0.5250
     31 F1          0.4826    5.9876   -3.8372 F         1 <0>        -0.1756
     32 F2          0.7910    4.5382   -2.0985 F         1 <0>        -0.1663
     33 F3          1.1801    3.8502   -4.2419 F         1 <0>        -0.1821
     34 H1         -2.0621    0.0475   -0.0949 H         1 <0>         0.1332
     35 H2         -1.3240   -0.8017    1.2843 H         1 <0>         0.1343
     36 H3         -2.0624    0.8010    1.5177 H         1 <0>         0.1364
     37 H4          2.3751   -0.7695    0.5930 H         1 <0>         0.1494
     38 H5          3.4306   -2.2293   -1.0854 H         1 <0>         0.1377
     39 H6          2.4983   -2.3641   -3.3607 H         1 <0>         0.1363
     40 H7          0.5102   -1.0397   -3.9569 H         1 <0>         0.1367
     41 H8         -1.3992    0.1783   -3.2270 H         1 <0>         0.1003
     42 H9         -1.5759    0.6767   -1.5274 H         1 <0>         0.0751
     43 H10         0.4357    2.2737   -2.6500 H         1 <0>         0.4201
     44 H11        -1.7785    6.0866   -4.2786 H         1 <0>         0.1814
     45 H12        -5.1749    2.0854   -3.6986 H         1 <0>         0.4260
     46 H13        -7.0735    2.5281   -5.3421 H         1 <0>         0.1348
     47 H14        -8.8094    4.1510   -5.9557 H         1 <0>         0.1321
     48 H15        -5.0041    5.5613   -3.1516 H         1 <0>         0.1421
     49 H16        -7.0964    7.7847   -2.7367 H         1 <0>         0.1244
     50 H17        -6.1732    8.2139   -4.2112 H         1 <0>         0.1267
     51 H18        -9.5524    6.8271   -5.6419 H         1 <0>         0.4135
@<TRIPOS>BOND
     1    1    2 1
     2    1   34 1
     3    1   35 1
     4    1   36 1
     5    2    3 2
     6    2    4 2
     7    2    5 1
     8    5   10 ar
     9    5    6 ar
    10    6    7 ar
    11    6   37 1
    12    7    8 ar
    13    7   38 1
    14    8    9 ar
    15    8   39 1
    16    9   10 ar
    17    9   40 1
    18   10   11 1
    19   11   12 1
    20   11   41 1
    21   11   42 1
    22   12   13 1
    23   12   43 1
    24   13   18 ar
    25   13   14 ar
    26   14   15 ar
    27   14   30 1
    28   15   16 ar
    29   15   44 1
    30   16   17 ar
    31   17   18 ar
    32   17   19 1
    33   19   20 1
    34   19   45 1
    35   20   25 ar
    36   20   21 ar
    37   21   22 ar
    38   21   46 1
    39   22   23 ar
    40   22   47 1
    41   23   29 1
    42   23   24 ar
    43   24   25 ar
    44   24   26 1
    45   25   48 1
    46   26   27 1
    47   26   49 1
    48   26   50 1
    49   27   28 2
    50   27   29 am
    51   29   51 1
    52   30   31 1
    53   30   32 1
    54   30   33 1
@<TRIPOS>MOLECULE
CHEMBL487246
   51    54     0     0     0
SMALL
USER_CHARGES

@<TRIPOS>ATOM
      1 C1          0.0186    1.5104    0.5203 C.3       1 <0>        -0.6502
      2 S1          0.0175   -0.2811    0.2351 S.o2      1 <0>         2.4987
      3 O1          0.8386   -0.9302    1.1961 O.2       1 <0>        -0.9348
      4 O2         -1.3055   -0.7363   -0.0132 O.2       1 <0>        -0.9347
      5 C2          0.8618   -0.4963   -1.2964 C.ar      1 <0>        -0.6615
      6 C3          0.1542   -0.4810   -2.4840 C.ar      1 <0>        -0.0119
      7 C4          0.8165   -0.6499   -3.6853 C.ar      1 <0>        -0.1383
      8 C5          2.1867   -0.8335   -3.6994 C.ar      1 <0>        -0.0419
      9 C6          2.8943   -0.8479   -2.5123 C.ar      1 <0>        -0.1370
     10 C7          2.2323   -0.6747   -1.3109 C.ar      1 <0>        -0.0028
     11 C8          4.3878   -1.0485   -2.5276 C.3       1 <0>         0.1687
     12 N1          5.0543    0.2524   -2.6249 N.pl3     1 <0>        -0.6983
     13 C9          6.4376    0.3214   -2.6556 C.ar      1 <0>         0.5250
     14 C10         7.0838    1.5568   -2.7425 C.ar      1 <0>        -0.4112
     15 C11         8.4643    1.5776   -2.7704 C.ar      1 <0>         0.2738
     16 N2          9.1312    0.4339   -2.7144 N.ar      1 <0>        -0.5858
     17 C12         8.4922   -0.7237   -2.6323 C.ar      1 <0>         0.6203
     18 N3          7.1693   -0.7864   -2.5975 N.ar      1 <0>        -0.6113
     19 N4          9.2255   -1.8972   -2.5763 N.pl3     1 <0>        -0.6246
     20 C13        10.6173   -1.8605   -2.7227 C.ar      1 <0>         0.1397
     21 C14        11.4154   -2.7678   -2.0375 C.ar      1 <0>        -0.1067
     22 C15        12.7863   -2.7342   -2.1796 C.ar      1 <0>        -0.1148
     23 C16        13.3824   -1.7890   -3.0126 C.ar      1 <0>         0.1278
     24 C17        12.5763   -0.8861   -3.6942 C.ar      1 <0>        -0.1214
     25 C18        11.2071   -0.9199   -3.5589 C.ar      1 <0>        -0.0569
     26 C19        13.5068   -0.0082   -4.4992 C.3       1 <0>        -0.1144
     27 C20        14.8871   -0.5382   -4.1744 C.2       1 <0>         0.5284
     28 O3         15.9397   -0.1201   -4.6083 O.2       1 <0>        -0.5027
     29 N5         14.7272   -1.5587   -3.3151 N.am      1 <0>        -0.6599
     30 C21         6.2924    2.8378   -2.8048 C.3       1 <0>         0.5287
     31 F1          7.1696    3.9244   -2.8871 F         1 <0>        -0.1719
     32 F2          5.4648    2.8202   -3.9327 F         1 <0>        -0.1789
     33 F3          5.5080    2.9578   -1.6527 F         1 <0>        -0.1789
     34 H1          1.0465    1.8693    0.5726 H         1 <0>         0.1320
     35 H2         -0.4990    2.0091   -0.2991 H         1 <0>         0.1325
     36 H3         -0.4909    1.7292    1.4587 H         1 <0>         0.1352
     37 H4         -0.9162   -0.3376   -2.4730 H         1 <0>         0.1458
     38 H5          0.2636   -0.6387   -4.6130 H         1 <0>         0.1384
     39 H6          2.7041   -0.9662   -4.6381 H         1 <0>         0.1347
     40 H7          2.7857   -0.6821   -0.3834 H         1 <0>         0.1449
     41 H8          4.6968   -1.5473   -1.6090 H         1 <0>         0.0876
     42 H9          4.6631   -1.6629   -3.3849 H         1 <0>         0.0868
     43 H10         4.5271    1.0655   -2.6678 H         1 <0>         0.4142
     44 H11         8.9948    2.5160   -2.8374 H         1 <0>         0.1828
     45 H12         8.7748   -2.7445   -2.4356 H         1 <0>         0.4276
     46 H13        10.9599   -3.5025   -1.3901 H         1 <0>         0.1358
     47 H14        13.4004   -3.4425   -1.6434 H         1 <0>         0.1330
     48 H15        10.5924   -0.2143   -4.0982 H         1 <0>         0.1436
     49 H16        13.3001   -0.1088   -5.5647 H         1 <0>         0.1245
     50 H17        13.4144    1.0324   -4.1880 H         1 <0>         0.1266
     51 H18        15.4607   -2.0760   -2.9472 H         1 <0>         0.4139
@<TRIPOS>BOND
     1    1    2 1
     2    1   34 1
     3    1   35 1
     4    1   36 1
     5    2    3 2
     6    2    4 2
     7    2    5 1
     8    5   10 ar
     9    5    6 ar
    10    6    7 ar
    11    6   37 1
    12    7    8 ar
    13    7   38 1
    14    8    9 ar
    15    8   39 1
    16    9   10 ar
    17    9   11 1
    18   10   40 1
    19   11   12 1
    20   11   41 1
    21   11   42 1
    22   12   13 1
    23   12   43 1
    24   13   18 ar
    25   13   14 ar
    26   14   15 ar
    27   14   30 1
    28   15   16 ar
    29   15   44 1
    30   16   17 ar
    31   17   18 ar
    32   17   19 1
    33   19   20 1
    34   19   45 1
    35   20   25 ar
    36   20   21 ar
    37   21   22 ar
    38   21   46 1
    39   22   23 ar
    40   22   47 1
    41   23   29 1
    42   23   24 ar
    43   24   25 ar
    44   24   26 1
    45   25   48 1
    46   26   27 1
    47   26   49 1
    48   26   50 1
    49   27   28 2
    50   27   29 am
    51   29   51 1
    52   30   31 1
    53   30   32 1
    54   30   33 1
@<TRIPOS>MOLECULE
CHEMBL206731
   49    52     0     0     0
SMALL
USER_CHARGES

@<TRIPOS>ATOM
      1 C1         -3.4372   -3.9339   -2.2690 C.3       1 <0>         0.0257
      2 O1         -2.2736   -3.5696   -1.5239 O.3       1 <0>        -0.2991
      3 C2         -2.3505   -2.4385   -0.7729 C.ar      1 <0>         0.1698
      4 C3         -3.5231   -1.6998   -0.7502 C.ar      1 <0>        -0.2282
      5 C4         -3.6018   -0.5450    0.0165 C.ar      1 <0>         0.2451
      6 C5         -2.5063   -0.1295    0.7613 C.ar      1 <0>        -0.2645
      7 C6         -1.3330   -0.8671    0.7397 C.ar      1 <0>         0.1709
      8 C7         -1.2552   -2.0260   -0.0234 C.ar      1 <0>         0.0095
      9 O2         -0.1046   -2.7541   -0.0411 O.3       1 <0>        -0.3103
     10 C8          0.8619   -2.4157   -1.0378 C.3       1 <0>         0.0342
     11 O3         -0.2598   -0.4595    1.4687 O.3       1 <0>        -0.2993
     12 C9         -0.4122    0.7379    2.2337 C.3       1 <0>         0.0243
     13 N1         -4.7862    0.2011    0.0381 N.pl3     1 <0>        -0.6355
     14 C10        -6.0111   -0.4403   -0.0583 C.ar      1 <0>         0.5836
     15 N2         -6.0401   -1.7679   -0.0528 N.ar      1 <0>        -0.5563
     16 C11        -7.1831   -2.4264   -0.1419 C.ar      1 <0>         0.2430
     17 C12        -8.3671   -1.6972   -0.2427 C.ar      1 <0>        -0.2489
     18 C13        -9.7864   -2.0378   -0.3567 C.2       1 <0>        -0.1468
     19 C14       -10.4617   -0.8800   -0.4188 C.2       1 <0>         0.0468
     20 N3         -9.5854    0.1765   -0.3535 N.pl3     1 <0>        -0.4312
     21 C15        -8.3000   -0.2880   -0.2456 C.ar      1 <0>         0.3704
     22 N4         -7.1087    0.2924   -0.1470 N.ar      1 <0>        -0.5702
     23 C16        -9.9501    1.5236   -0.3921 C.ar      1 <0>         0.1634
     24 C17       -10.7037    2.0716    0.6361 C.ar      1 <0>        -0.1084
     25 C18       -11.0634    3.4041    0.5963 C.ar      1 <0>        -0.0776
     26 C19       -10.6764    4.2032   -0.4671 C.ar      1 <0>        -0.1081
     27 C20        -9.9277    3.6760   -1.4973 C.ar      1 <0>        -0.0607
     28 C21        -9.5515    2.3310   -1.4676 C.ar      1 <0>        -0.0105
     29 C22        -8.7686    1.7784   -2.5317 C.1       1 <0>         0.2455
     30 N5         -8.1475    1.3401   -3.3758 N.1       1 <0>        -0.3937
     31 H1         -3.2415   -4.8524   -2.8224 H         1 <0>         0.1024
     32 H2         -4.2715   -4.0923   -1.5856 H         1 <0>         0.0621
     33 H3         -3.6863   -3.1350   -2.9675 H         1 <0>         0.0532
     34 H4         -4.3756   -2.0224   -1.3294 H         1 <0>         0.1487
     35 H5         -2.5683    0.7689    1.3575 H         1 <0>         0.1372
     36 H6          0.4219   -2.5394   -2.0274 H         1 <0>         0.0431
     37 H7          1.1730   -1.3795   -0.9054 H         1 <0>         0.0429
     38 H8          1.7281   -3.0703   -0.9410 H         1 <0>         0.0913
     39 H9          0.5151    0.9493    2.7662 H         1 <0>         0.1034
     40 H10        -0.6455    1.5679    1.5668 H         1 <0>         0.0566
     41 H11        -1.2223    0.6098    2.9516 H         1 <0>         0.0579
     42 H12        -4.7496    1.1668    0.1206 H         1 <0>         0.4243
     43 H13        -7.1992   -3.5062   -0.1371 H         1 <0>         0.1774
     44 H14       -10.2091   -3.0312   -0.3856 H         1 <0>         0.1628
     45 H15       -11.5345   -0.7915   -0.5074 H         1 <0>         0.1843
     46 H16       -11.0095    1.4550    1.4684 H         1 <0>         0.1414
     47 H17       -11.6503    3.8258    1.3988 H         1 <0>         0.1425
     48 H18       -10.9631    5.2442   -0.4892 H         1 <0>         0.1431
     49 H19        -9.6291    4.3029   -2.3245 H         1 <0>         0.1426
@<TRIPOS>BOND
     1    1    2 1
     2    1   31 1
     3    1   32 1
     4    1   33 1
     5    2    3 1
     6    3    8 ar
     7    3    4 ar
     8    4    5 ar
     9    4   34 1
    10    5    6 ar
    11    5   13 1
    12    6    7 ar
    13    6   35 1
    14    7    8 ar
    15    7   11 1
    16    8    9 1
    17    9   10 1
    18   10   36 1
    19   10   37 1
    20   10   38 1
    21   11   12 1
    22   12   39 1
    23   12   40 1
    24   12   41 1
    25   13   14 1
    26   13   42 1
    27   14   22 ar
    28   14   15 ar
    29   15   16 ar
    30   16   17 ar
    31   16   43 1
    32   17   21 ar
    33   17   18 1
    34   18   19 2
    35   18   44 1
    36   19   20 1
    37   19   45 1
    38   20   21 1
    39   20   23 1
    40   21   22 ar
    41   23   28 ar
    42   23   24 ar
    43   24   25 ar
    44   24   46 1
    45   25   26 ar
    46   25   47 1
    47   26   27 ar
    48   26   48 1
    49   27   28 ar
    50   27   49 1
    51   28   29 1
    52   29   30 3
@<TRIPOS>MOLECULE
CHEMBL205098
   47    50     0     0     0
SMALL
USER_CHARGES

@<TRIPOS>ATOM
      1 C1          3.7462   -3.8402   -1.9199 C.3       1 <0>         0.0258
      2 O1          2.5133   -3.5077   -1.2784 O.3       1 <0>        -0.2996
      3 C2          1.8845   -2.3771   -1.6976 C.ar      1 <0>         0.1696
      4 C3          2.4406   -1.6087   -2.7083 C.ar      1 <0>        -0.2291
      5 C4          1.7988   -0.4544   -3.1364 C.ar      1 <0>         0.2463
      6 C5          0.6000   -0.0685   -2.5521 C.ar      1 <0>        -0.2650
      7 C6          0.0429   -0.8356   -1.5409 C.ar      1 <0>         0.1709
      8 C7          0.6813   -1.9947   -1.1165 C.ar      1 <0>         0.0085
      9 O2          0.1313   -2.7523   -0.1276 O.3       1 <0>        -0.3105
     10 C8          0.5051   -2.4371    1.2152 C.3       1 <0>         0.0342
     11 O3         -1.1310   -0.4569   -0.9681 O.3       1 <0>        -0.2997
     12 C9         -1.7347    0.7421   -1.4578 C.3       1 <0>         0.0242
     13 N1          2.3611    0.3211   -4.1573 N.pl3     1 <0>        -0.6348
     14 C10         3.0666   -0.2891   -5.1825 C.ar      1 <0>         0.5763
     15 N2          3.0962   -1.6155   -5.2374 N.ar      1 <0>        -0.5568
     16 C11         3.7547   -2.2448   -6.1956 C.ar      1 <0>         0.2406
     17 C12         4.4230   -1.4859   -7.1554 C.ar      1 <0>        -0.2541
     18 C13         5.2361   -1.7905   -8.3342 C.2       1 <0>        -0.1355
     19 C14         5.6101   -0.6161   -8.8645 C.2       1 <0>         0.0374
     20 N3          5.0998    0.4181   -8.1168 N.pl3     1 <0>        -0.4110
     21 C15         4.3709   -0.0789   -7.0671 C.ar      1 <0>         0.3802
     22 N4          3.6812    0.4711   -6.0734 N.ar      1 <0>        -0.5407
     23 C16         5.2947    1.7742   -8.3864 C.ar      1 <0>         0.3454
     24 C17         6.0513    2.1554   -9.4883 C.ar      1 <0>        -0.1887
     25 C18         6.2367    3.5026   -9.7440 C.ar      1 <0>        -0.0471
     26 C19         5.6562    4.4257   -8.8848 C.ar      1 <0>        -0.1895
     27 C20         4.9168    3.9758   -7.8089 C.ar      1 <0>         0.1347
     28 N5          4.7528    2.6846   -7.5935 N.ar      1 <0>        -0.4788
     29 H1          3.5744   -3.9791   -2.9873 H         1 <0>         0.0623
     30 H2          4.4633   -3.0332   -1.7692 H         1 <0>         0.0531
     31 H3          4.1412   -4.7618   -1.4924 H         1 <0>         0.1018
     32 H4          3.3735   -1.9079   -3.1628 H         1 <0>         0.1490
     33 H5          0.1015    0.8297   -2.8854 H         1 <0>         0.1372
     34 H6         -0.0026   -3.1141    1.9022 H         1 <0>         0.0910
     35 H7          1.5837   -2.5472    1.3274 H         1 <0>         0.0430
     36 H8          0.2194   -1.4095    1.4402 H         1 <0>         0.0428
     37 H9         -1.0528    1.5793   -1.3090 H         1 <0>         0.0568
     38 H10        -1.9494    0.6329   -2.5208 H         1 <0>         0.0579
     39 H11        -2.6626    0.9288   -0.9170 H         1 <0>         0.1032
     40 H12         2.2569    1.2854   -4.1473 H         1 <0>         0.4257
     41 H13         3.7749   -3.3239   -6.2339 H         1 <0>         0.1775
     42 H14         5.4872   -2.7729   -8.7058 H         1 <0>         0.1655
     43 H15         6.2213   -0.5007   -9.7474 H         1 <0>         0.1849
     44 H16         6.4890    1.4101  -10.1360 H         1 <0>         0.1416
     45 H17         6.8200    3.8285  -10.5925 H         1 <0>         0.1452
     46 H18         5.7819    5.4847   -9.0559 H         1 <0>         0.1427
     47 H19         4.4633    4.6901   -7.1377 H         1 <0>         0.1651
@<TRIPOS>BOND
     1    1    2 1
     2    1   29 1
     3    1   30 1
     4    1   31 1
     5    2    3 1
     6    3    8 ar
     7    3    4 ar
     8    4    5 ar
     9    4   32 1
    10    5    6 ar
    11    5   13 1
    12    6    7 ar
    13    6   33 1
    14    7    8 ar
    15    7   11 1
    16    8    9 1
    17    9   10 1
    18   10   34 1
    19   10   35 1
    20   10   36 1
    21   11   12 1
    22   12   37 1
    23   12   38 1
    24   12   39 1
    25   13   14 1
    26   13   40 1
    27   14   22 ar
    28   14   15 ar
    29   15   16 ar
    30   16   17 ar
    31   16   41 1
    32   17   21 ar
    33   17   18 1
    34   18   19 2
    35   18   42 1
    36   19   20 1
    37   19   43 1
    38   20   21 1
    39   20   23 1
    40   21   22 ar
    41   23   28 ar
    42   23   24 ar
    43   24   25 ar
    44   24   44 1
    45   25   26 ar
    46   25   45 1
    47   26   27 ar
    48   26   46 1
    49   27   28 ar
    50   27   47 1
@<TRIPOS>MOLECULE
CHEMBL206853
   52    57     0     0     0
SMALL
USER_CHARGES

@<TRIPOS>ATOM
      1 C1         -0.0119    1.4888    0.0015 C.3       1 <0>        -0.1138
      2 C2         -0.0130   -0.0182    0.0022 C.ar      1 <0>        -0.1040
      3 C3         -0.0267   -0.7080   -1.1955 C.ar      1 <0>        -0.0984
      4 C4         -0.0278   -2.0882   -1.2021 C.ar      1 <0>        -0.1147
      5 C5         -0.0151   -2.7917    0.0022 C.ar      1 <0>        -0.0427
      6 C6         -0.0013   -2.0976    1.2095 C.ar      1 <0>        -0.0792
      7 C7          0.0054   -0.7105    1.2071 C.ar      1 <0>         0.1653
      8 N1          0.0254   -0.0091    2.4164 N.pl3     1 <0>        -0.6314
      9 C8          0.5470   -0.6046    3.5545 C.ar      1 <0>         0.5744
     10 N2          1.1332   -1.7909    3.4442 N.ar      1 <0>        -0.5531
     11 C9          1.6459   -2.4000    4.4996 C.ar      1 <0>         0.2437
     12 C10         1.5600   -1.7703    5.7405 C.ar      1 <0>        -0.2553
     13 C11         1.9878   -2.1007    7.1012 C.2       1 <0>        -0.1347
     14 C12         1.6143   -1.0792    7.8867 C.2       1 <0>         0.0358
     15 N3          0.9800   -0.1191    7.1350 N.pl3     1 <0>        -0.4114
     16 C13         0.9306   -0.5104    5.8218 C.ar      1 <0>         0.3810
     17 N4          0.4472    0.0322    4.7093 N.ar      1 <0>        -0.5424
     18 C14         0.4621    1.0774    7.6349 C.ar      1 <0>         0.3465
     19 C15         0.5788    1.3655    8.9896 C.ar      1 <0>        -0.1893
     20 C16         0.0617    2.5549    9.4718 C.ar      1 <0>        -0.0472
     21 C17        -0.5570    3.4186    8.5781 C.ar      1 <0>        -0.1904
     22 C18        -0.6374    3.0680    7.2450 C.ar      1 <0>         0.1347
     23 N5         -0.1304    1.9290    6.8134 N.ar      1 <0>        -0.4786
     24 C19        -0.0168   -4.2744   -0.0030 C.ar      1 <0>         0.1544
     25 C20         0.0811   -4.9689   -1.2230 C.ar      1 <0>         0.0890
     26 N6          0.0816   -6.2801   -1.2459 N.ar      1 <0>        -0.4213
     27 C21        -0.0117   -6.9669   -0.1005 C.ar      1 <0>         0.0694
     28 C22        -0.0129   -8.3721   -0.0980 C.ar      1 <0>        -0.0812
     29 C23        -0.1085   -9.0453    1.0810 C.ar      1 <0>        -0.1011
     30 C24        -0.2063   -8.3615    2.2917 C.ar      1 <0>        -0.0969
     31 C25        -0.2084   -7.0013    2.3290 C.ar      1 <0>        -0.0845
     32 C26        -0.1107   -6.2709    1.1311 C.ar      1 <0>         0.0890
     33 N7         -0.1048   -4.9343    1.1386 N.ar      1 <0>        -0.4174
     34 H1          1.0160    1.8513   -0.0149 H         1 <0>         0.0742
     35 H2         -0.5394    1.8521   -0.8805 H         1 <0>         0.0739
     36 H3         -0.5113    1.8529    0.8992 H         1 <0>         0.0605
     37 H4         -0.0369   -0.1653   -2.1292 H         1 <0>         0.1328
     38 H5         -0.0389   -2.6237   -2.1399 H         1 <0>         0.1291
     39 H6          0.0085   -2.6376    2.1447 H         1 <0>         0.1659
     40 H7         -0.3256    0.8941    2.4590 H         1 <0>         0.4232
     41 H8          2.1210   -3.3650    4.4027 H         1 <0>         0.1757
     42 H9          2.5048   -2.9961    7.4131 H         1 <0>         0.1647
     43 H10         1.7861   -1.0202    8.9513 H         1 <0>         0.1843
     44 H11         1.0663    0.6702    9.6570 H         1 <0>         0.1413
     45 H12         0.1373    2.8055   10.5196 H         1 <0>         0.1448
     46 H13        -0.9714    4.3548    8.9221 H         1 <0>         0.1424
     47 H14        -1.1180    3.7364    6.5460 H         1 <0>         0.1649
     48 H15         0.1561   -4.4173   -2.1484 H         1 <0>         0.1763
     49 H16         0.0615   -8.9158   -1.0282 H         1 <0>         0.1397
     50 H17        -0.1090  -10.1253    1.0785 H         1 <0>         0.1363
     51 H18        -0.2819   -8.9193    3.2134 H         1 <0>         0.1363
     52 H19        -0.2848   -6.4848    3.2744 H         1 <0>         0.1394
@<TRIPOS>BOND
     1    1    2 1
     2    1   34 1
     3    1   35 1
     4    1   36 1
     5    2    7 ar
     6    2    3 ar
     7    3    4 ar
     8    3   37 1
     9    4    5 ar
    10    4   38 1
    11    5    6 ar
    12    5   24 1
    13    6    7 ar
    14    6   39 1
    15    7    8 1
    16    8    9 1
    17    8   40 1
    18    9   17 ar
    19    9   10 ar
    20   10   11 ar
    21   11   12 ar
    22   11   41 1
    23   12   16 ar
    24   12   13 1
    25   13   14 2
    26   13   42 1
    27   14   15 1
    28   14   43 1
    29   15   16 1
    30   15   18 1
    31   16   17 ar
    32   18   23 ar
    33   18   19 ar
    34   19   20 ar
    35   19   44 1
    36   20   21 ar
    37   20   45 1
    38   21   22 ar
    39   21   46 1
    40   22   23 ar
    41   22   47 1
    42   24   33 ar
    43   24   25 ar
    44   25   26 ar
    45   25   48 1
    46   26   27 ar
    47   27   32 ar
    48   27   28 ar
    49   28   29 ar
    50   28   49 1
    51   29   30 ar
    52   29   50 1
    53   30   31 ar
    54   30   51 1
    55   31   32 ar
    56   31   52 1
    57   32   33 ar
@<TRIPOS>MOLECULE
CHEMBL206797
   38    41     0     0     0
SMALL
USER_CHARGES

@<TRIPOS>ATOM
      1 C1         -1.1985    0.9775    0.0472 C.3       1 <0>        -0.1154
      2 C2         -0.3257   -0.2510    0.0391 C.ar      1 <0>        -0.1163
      3 C3         -0.0948   -0.9274   -1.1428 C.ar      1 <0>        -0.1010
      4 C4          0.7054   -2.0549   -1.1510 C.ar      1 <0>        -0.1354
      5 C5          1.2776   -2.5091    0.0234 C.ar      1 <0>        -0.1057
      6 C6          1.0509   -1.8377    1.2085 C.ar      1 <0>        -0.1107
      7 C7          0.2520   -0.7011    1.2192 C.ar      1 <0>         0.1675
      8 N1          0.0251   -0.0156    2.4162 N.pl3     1 <0>        -0.6347
      9 C8         -0.0587   -0.7149    3.6103 C.ar      1 <0>         0.5766
     10 N2         -0.0333   -2.0421    3.5774 N.ar      1 <0>        -0.5577
     11 C9         -0.1097   -2.7544    4.6885 C.ar      1 <0>         0.2419
     12 C10        -0.2185   -2.0828    5.9054 C.ar      1 <0>        -0.2579
     13 C11        -0.3242   -2.4908    7.3075 C.2       1 <0>        -0.1347
     14 C12        -0.4022   -1.3670    8.0362 C.2       1 <0>         0.0352
     15 N3         -0.3546   -0.2698    7.2100 N.pl3     1 <0>        -0.4116
     16 C13        -0.2426   -0.6722    5.9040 C.ar      1 <0>         0.3808
     17 N4         -0.1557   -0.0356    4.7409 N.ar      1 <0>        -0.5443
     18 C14        -0.4119    1.0583    7.6373 C.ar      1 <0>         0.3463
     19 C15        -0.5195    1.3411    8.9939 C.ar      1 <0>        -0.1894
     20 C16        -0.5749    2.6616    9.4039 C.ar      1 <0>        -0.0472
     21 C17        -0.5203    3.6576    8.4384 C.ar      1 <0>        -0.1904
     22 C18        -0.4134    3.3040    7.1079 C.ar      1 <0>         0.1347
     23 N5         -0.3576    2.0362    6.7473 N.ar      1 <0>        -0.4788
     24 H1         -0.5846    1.8605   -0.1307 H         1 <0>         0.0700
     25 H2         -1.9506    0.8940   -0.7373 H         1 <0>         0.0707
     26 H3         -1.6914    1.0667    1.0152 H         1 <0>         0.0626
     27 H4         -0.5402   -0.5754   -2.0616 H         1 <0>         0.1242
     28 H5          0.8837   -2.5824   -2.0764 H         1 <0>         0.1216
     29 H6          1.9022   -3.3902    0.0136 H         1 <0>         0.1234
     30 H7          1.4978   -2.1931    2.1252 H         1 <0>         0.1333
     31 H8         -0.0737    0.9493    2.4113 H         1 <0>         0.4227
     32 H9         -0.0888   -3.8336    4.6542 H         1 <0>         0.1769
     33 H10        -0.3373   -3.5032    7.6833 H         1 <0>         0.1648
     34 H11        -0.4897   -1.3302    9.1121 H         1 <0>         0.1842
     35 H12        -0.5598    0.5410    9.7183 H         1 <0>         0.1414
     36 H13        -0.6589    2.9116   10.4512 H         1 <0>         0.1448
     37 H14        -0.5615    4.6981    8.7248 H         1 <0>         0.1424
     38 H15        -0.3706    4.0752    6.3530 H         1 <0>         0.1650
@<TRIPOS>BOND
     1    1    2 1
     2    1   24 1
     3    1   25 1
     4    1   26 1
     5    2    7 ar
     6    2    3 ar
     7    3    4 ar
     8    3   27 1
     9    4    5 ar
    10    4   28 1
    11    5    6 ar
    12    5   29 1
    13    6    7 ar
    14    6   30 1
    15    7    8 1
    16    8    9 1
    17    8   31 1
    18    9   17 ar
    19    9   10 ar
    20   10   11 ar
    21   11   12 ar
    22   11   32 1
    23   12   16 ar
    24   12   13 1
    25   13   14 2
    26   13   33 1
    27   14   15 1
    28   14   34 1
    29   15   16 1
    30   15   18 1
    31   16   17 ar
    32   18   23 ar
    33   18   19 ar
    34   19   20 ar
    35   19   35 1
    36   20   21 ar
    37   20   36 1
    38   21   22 ar
    39   21   37 1
    40   22   23 ar
    41   22   38 1
@<TRIPOS>MOLECULE
CHEMBL204686
   73    76     0     0     0
SMALL
USER_CHARGES

@<TRIPOS>ATOM
      1 C1          1.4208    0.4344   -1.4620 C.3       1 <0>        -0.0468
      2 N1          1.3034   -1.0298   -1.4785 N.4       1 <0>        -0.3832
      3 C2          2.1311   -1.5995   -0.4068 C.3       1 <0>        -0.0558
      4 C3         -0.0996   -1.4110   -1.2687 C.3       1 <0>        -0.0229
      5 C4         -0.2426   -2.9278   -1.4097 C.3       1 <0>         0.0933
      6 N2         -1.6419   -3.3079   -1.2005 N.am      1 <0>        -0.7372
      7 C5         -2.0071   -4.6030   -1.2772 C.2       1 <0>         0.5208
      8 O1         -1.1773   -5.4537   -1.5195 O.2       1 <0>        -0.5210
      9 C6         -3.4464   -4.9940   -1.0620 C.3       1 <0>        -0.1341
     10 C7         -3.5894   -6.5108   -1.2030 C.3       1 <0>        -0.0644
     11 C8         -5.0288   -6.9019   -0.9878 C.ar      1 <0>        -0.0745
     12 C9         -5.4797   -7.2044    0.2842 C.ar      1 <0>        -0.1114
     13 C10        -6.7996   -7.5631    0.4857 C.ar      1 <0>        -0.0968
     14 C11        -7.6722   -7.6208   -0.5836 C.ar      1 <0>        -0.1020
     15 C12        -7.2226   -7.3178   -1.8617 C.ar      1 <0>         0.1303
     16 C13        -5.8976   -6.9522   -2.0600 C.ar      1 <0>        -0.1152
     17 N3         -8.1050   -7.3759   -2.9484 N.pl3     1 <0>        -0.4216
     18 C14        -8.2694   -6.3836   -3.8841 C.2       1 <0>         0.0396
     19 C15        -9.1883   -6.7564   -4.7884 C.2       1 <0>        -0.1459
     20 C16        -9.6484   -8.0913   -4.4020 C.ar      1 <0>        -0.2524
     21 C17        -8.9271   -8.4333   -3.2381 C.ar      1 <0>         0.3690
     22 N4         -9.1526   -9.6152   -2.6744 N.ar      1 <0>        -0.5733
     23 C18       -10.0334  -10.4512   -3.1989 C.ar      1 <0>         0.5841
     24 N5        -10.7255  -10.1609   -4.2941 N.ar      1 <0>        -0.5563
     25 C19       -10.5694   -9.0034   -4.9141 C.ar      1 <0>         0.2449
     26 N6        -10.2410  -11.6753   -2.5828 N.pl3     1 <0>        -0.6348
     27 C20       -11.0783  -12.6259   -3.1788 C.ar      1 <0>         0.2419
     28 C21       -11.1421  -12.7240   -4.5622 C.ar      1 <0>        -0.2286
     29 C22       -11.9709  -13.6649   -5.1531 C.ar      1 <0>         0.1696
     30 C23       -12.7380  -14.5102   -4.3604 C.ar      1 <0>         0.0112
     31 C24       -12.6736  -14.4113   -2.9757 C.ar      1 <0>         0.1717
     32 C25       -11.8401  -13.4737   -2.3862 C.ar      1 <0>        -0.2642
     33 O2        -13.4240  -15.2380   -2.1992 O.3       1 <0>        -0.2985
     34 C26       -13.3080  -15.0807   -0.7836 C.3       1 <0>         0.0242
     35 O3        -13.5528  -15.4345   -4.9402 O.3       1 <0>        -0.3104
     36 C27       -12.9909  -16.7223   -5.2006 C.3       1 <0>         0.0344
     37 O4        -12.0336  -13.7606   -6.5082 O.3       1 <0>        -0.2985
     38 C28       -11.2183  -12.8599   -7.2606 C.3       1 <0>         0.0261
     39 H1          2.4619    0.7172   -1.6177 H         1 <0>         0.1284
     40 H2          0.8067    0.8570   -2.2572 H         1 <0>         0.1251
     41 H3          1.0809    0.8153   -0.4990 H         1 <0>         0.1237
     42 H4          1.7912   -1.2185    0.5562 H         1 <0>         0.1248
     43 H5          2.0440   -2.6859   -0.4190 H         1 <0>         0.1260
     44 H6          3.1722   -1.3166   -0.5625 H         1 <0>         0.1291
     45 H7         -0.4131   -1.1078   -0.2697 H         1 <0>         0.1374
     46 H8         -0.7255   -0.9165   -2.0116 H         1 <0>         0.1384
     47 H9          0.0708   -3.2310   -2.4087 H         1 <0>         0.0890
     48 H10         0.3832   -3.4223   -0.6668 H         1 <0>         0.0897
     49 H11        -2.3055   -2.6275   -1.0067 H         1 <0>         0.4092
     50 H12        -3.7599   -4.6908   -0.0631 H         1 <0>         0.1029
     51 H13        -4.0723   -4.4995   -1.8049 H         1 <0>         0.1015
     52 H14        -3.2760   -6.8140   -2.2020 H         1 <0>         0.0834
     53 H15        -2.9636   -7.0053   -0.4601 H         1 <0>         0.0860
     54 H16        -4.7992   -7.1606    1.1217 H         1 <0>         0.1291
     55 H17        -7.1488   -7.7988    1.4802 H         1 <0>         0.1340
     56 H18        -8.7029   -7.9018   -0.4257 H         1 <0>         0.1288
     57 H19        -5.5459   -6.7119   -3.0525 H         1 <0>         0.1291
     58 H20        -7.7382   -5.4434   -3.8910 H         1 <0>         0.1787
     59 H21        -9.5246   -6.1811   -5.6384 H         1 <0>         0.1614
     60 H22       -11.1352   -8.7745   -5.8052 H         1 <0>         0.1775
     61 H23        -9.8062  -11.8734   -1.7386 H         1 <0>         0.4246
     62 H24       -10.5461  -12.0669   -5.1781 H         1 <0>         0.1488
     63 H25       -11.7866  -13.3997   -1.3101 H         1 <0>         0.1372
     64 H26       -12.2749  -15.2536   -0.4822 H         1 <0>         0.0567
     65 H27       -13.6034  -14.0692   -0.5050 H         1 <0>         0.0578
     66 H28       -13.9574  -15.7995   -0.2838 H         1 <0>         0.1043
     67 H29       -13.7440  -17.3607   -5.6624 H         1 <0>         0.0924
     68 H30       -12.1403  -16.6181   -5.8741 H         1 <0>         0.0433
     69 H31       -12.6598  -17.1704   -4.2637 H         1 <0>         0.0433
     70 H32       -11.3629  -13.0421   -8.3255 H         1 <0>         0.1025
     71 H33       -11.4993  -11.8332   -7.0262 H         1 <0>         0.0618
     72 H34       -10.1707  -13.0175   -7.0041 H         1 <0>         0.0527
     73 H35         1.6181   -1.3825   -2.3700 H         1 <0>         0.4303
@<TRIPOS>BOND
     1    1    2 1
     2    1   39 1
     3    1   40 1
     4    1   41 1
     5    2    3 1
     6    2    4 1
     7    2   73 1
     8    3   42 1
     9    3   43 1
    10    3   44 1
    11    4    5 1
    12    4   45 1
    13    4   46 1
    14    5    6 1
    15    5   47 1
    16    5   48 1
    17    6    7 am
    18    6   49 1
    19    7    8 2
    20    7    9 1
    21    9   10 1
    22    9   50 1
    23    9   51 1
    24   10   11 1
    25   10   52 1
    26   10   53 1
    27   11   16 ar
    28   11   12 ar
    29   12   13 ar
    30   12   54 1
    31   13   14 ar
    32   13   55 1
    33   14   15 ar
    34   14   56 1
    35   15   16 ar
    36   15   17 1
    37   16   57 1
    38   17   21 1
    39   17   18 1
    40   18   19 2
    41   18   58 1
    42   19   20 1
    43   19   59 1
    44   20   25 ar
    45   20   21 ar
    46   21   22 ar
    47   22   23 ar
    48   23   24 ar
    49   23   26 1
    50   24   25 ar
    51   25   60 1
    52   26   27 1
    53   26   61 1
    54   27   32 ar
    55   27   28 ar
    56   28   29 ar
    57   28   62 1
    58   29   30 ar
    59   29   37 1
    60   30   31 ar
    61   30   35 1
    62   31   32 ar
    63   31   33 1
    64   32   63 1
    65   33   34 1
    66   34   64 1
    67   34   65 1
    68   34   66 1
    69   35   36 1
    70   36   67 1
    71   36   68 1
    72   36   69 1
    73   37   38 1
    74   38   70 1
    75   38   71 1
    76   38   72 1
@<TRIPOS>MOLECULE
CHEMBL204933
   57    59     0     0     0
SMALL
USER_CHARGES

@<TRIPOS>ATOM
      1 C1         -1.8273    1.4466   -1.3652 C.3       1 <0>        -0.1530
      2 C2         -1.4665   -0.0206   -1.1244 C.3       1 <0>         0.0603
      3 O1         -2.6316   -0.7354   -0.7078 O.3       1 <0>        -0.3532
      4 C3         -2.4846   -2.0453   -0.4538 C.2       1 <0>         0.4520
      5 O2         -1.4025   -2.5675   -0.5809 O.2       1 <0>        -0.4923
      6 C4         -3.6692   -2.8643   -0.0100 C.3       1 <0>        -0.0504
      7 C5         -3.2395   -4.2924    0.2069 C.ar      1 <0>        -0.2837
      8 C6         -3.3815   -5.2329   -0.7953 C.ar      1 <0>         0.2258
      9 N1         -2.9937   -6.4799   -0.5734 N.ar      1 <0>        -0.5764
     10 C7         -2.4738   -6.8342    0.5929 C.ar      1 <0>         0.5896
     11 N2         -2.3209   -5.9631    1.5788 N.ar      1 <0>        -0.5413
     12 C8         -2.6836   -4.6939    1.4231 C.ar      1 <0>         0.4783
     13 N3         -2.5172   -3.7827    2.4556 N.pl3     1 <0>        -0.6332
     14 C9         -1.8904   -4.1743    3.6351 C.ar      1 <0>         0.3662
     15 C10        -1.8228   -3.2894    4.7064 C.ar      1 <0>        -0.2121
     16 C11        -1.1971   -3.6916    5.8725 C.ar      1 <0>        -0.0451
     17 C12        -0.6579   -4.9701    5.9283 C.ar      1 <0>        -0.2076
     18 C13        -0.7613   -5.7961    4.8271 C.ar      1 <0>         0.1322
     19 N4         -1.3687   -5.3874    3.7293 N.ar      1 <0>        -0.4658
     20 N5         -2.0809   -8.1481    0.7858 N.pl3     1 <0>        -0.6321
     21 C14        -2.1231   -9.0551   -0.2800 C.ar      1 <0>         0.2443
     22 C15        -1.8405   -8.6244   -1.5692 C.ar      1 <0>        -0.2264
     23 C16        -1.8825   -9.5216   -2.6249 C.ar      1 <0>         0.1689
     24 C17        -2.2072  -10.8527   -2.3926 C.ar      1 <0>         0.0091
     25 C18        -2.4895  -11.2833   -1.1017 C.ar      1 <0>         0.1702
     26 C19        -2.4420  -10.3859   -0.0463 C.ar      1 <0>        -0.2637
     27 O3         -2.8073  -12.5857   -0.8733 O.3       1 <0>        -0.2998
     28 C20        -3.0858  -12.9582    0.4779 C.3       1 <0>         0.0244
     29 O4         -2.2491  -11.7347   -3.4293 O.3       1 <0>        -0.3107
     30 C21        -1.0375  -12.4239   -3.7440 C.3       1 <0>         0.0345
     31 O5         -1.6065   -9.0992   -3.8878 O.3       1 <0>        -0.2998
     32 C22        -1.2810   -7.7176   -4.0532 C.3       1 <0>         0.0262
     33 H1         -0.9386    1.9919   -1.6830 H         1 <0>         0.0804
     34 H2         -2.5898    1.5106   -2.1416 H         1 <0>         0.0680
     35 H3         -2.2106    1.8827   -0.4427 H         1 <0>         0.0671
     36 H4         -1.0833   -0.4567   -2.0470 H         1 <0>         0.0682
     37 H5         -0.7041   -0.0846   -0.3481 H         1 <0>         0.0667
     38 H6         -4.0634   -2.4581    0.9215 H         1 <0>         0.1070
     39 H7         -4.4425   -2.8301   -0.7773 H         1 <0>         0.1250
     40 H8         -3.8043   -4.9544   -1.7492 H         1 <0>         0.1704
     41 H9         -2.8376   -2.8726    2.3557 H         1 <0>         0.4255
     42 H10        -2.2528   -2.3018    4.6284 H         1 <0>         0.1330
     43 H11        -1.1291   -3.0261    6.7205 H         1 <0>         0.1375
     44 H12        -0.1625   -5.3146    6.8240 H         1 <0>         0.1349
     45 H13        -0.3434   -6.7912    4.8660 H         1 <0>         0.1574
     46 H14        -1.7765   -8.4401    1.6593 H         1 <0>         0.4265
     47 H15        -1.5882   -7.5899   -1.7495 H         1 <0>         0.1485
     48 H16        -2.6574  -10.7212    0.9575 H         1 <0>         0.1371
     49 H17        -3.3241  -14.0210    0.5200 H         1 <0>         0.1030
     50 H18        -2.2120  -12.7569    1.0977 H         1 <0>         0.0568
     51 H19        -3.9336  -12.3809    0.8466 H         1 <0>         0.0578
     52 H20        -0.2654  -11.7005   -4.0060 H         1 <0>         0.0430
     53 H21        -0.7141  -13.0035   -2.8794 H         1 <0>         0.0429
     54 H22        -1.2089  -13.0936   -4.5868 H         1 <0>         0.0910
     55 H23        -0.3948   -7.4801   -3.4647 H         1 <0>         0.0536
     56 H24        -1.0835   -7.5144   -5.1057 H         1 <0>         0.1015
     57 H25        -2.1166   -7.1046   -3.7154 H         1 <0>         0.0618
@<TRIPOS>BOND
     1    1    2 1
     2    1   33 1
     3    1   34 1
     4    1   35 1
     5    2    3 1
     6    2   36 1
     7    2   37 1
     8    3    4 1
     9    4    5 2
    10    4    6 1
    11    6    7 1
    12    6   38 1
    13    6   39 1
    14    7   12 ar
    15    7    8 ar
    16    8    9 ar
    17    8   40 1
    18    9   10 ar
    19   10   11 ar
    20   10   20 1
    21   11   12 ar
    22   12   13 1
    23   13   14 1
    24   13   41 1
    25   14   19 ar
    26   14   15 ar
    27   15   16 ar
    28   15   42 1
    29   16   17 ar
    30   16   43 1
    31   17   18 ar
    32   17   44 1
    33   18   19 ar
    34   18   45 1
    35   20   21 1
    36   20   46 1
    37   21   26 ar
    38   21   22 ar
    39   22   23 ar
    40   22   47 1
    41   23   24 ar
    42   23   31 1
    43   24   25 ar
    44   24   29 1
    45   25   26 ar
    46   25   27 1
    47   26   48 1
    48   27   28 1
    49   28   49 1
    50   28   50 1
    51   28   51 1
    52   29   30 1
    53   30   52 1
    54   30   53 1
    55   30   54 1
    56   31   32 1
    57   32   55 1
    58   32   56 1
    59   32   57 1
@<TRIPOS>MOLECULE
CHEMBL207015
   49    52     0     0     0
SMALL
USER_CHARGES

@<TRIPOS>ATOM
      1 C1         -0.1469   -3.9245    4.1298 C.3       1 <0>         0.0257
      2 O1         -0.0924   -3.5635    2.7482 O.3       1 <0>        -0.2993
      3 C2          0.5679   -2.4165    2.4353 C.ar      1 <0>         0.1696
      4 C3          1.1549   -1.6594    3.4370 C.ar      1 <0>        -0.2284
      5 C4          1.8291   -0.4884    3.1178 C.ar      1 <0>         0.2443
      6 C5          1.9162   -0.0752    1.7952 C.ar      1 <0>        -0.2644
      7 C6          1.3296   -0.8313    0.7925 C.ar      1 <0>         0.1708
      8 C7          0.6591   -2.0063    1.1107 C.ar      1 <0>         0.0098
      9 O2          0.0871   -2.7524    0.1255 O.3       1 <0>        -0.3105
     10 C8         -1.2674   -2.4491   -0.2144 C.3       1 <0>         0.0343
     11 O3          1.4143   -0.4259   -0.5029 O.3       1 <0>        -0.2994
     12 C9          2.1227    0.7887   -0.7575 C.3       1 <0>         0.0242
     13 N1          2.4210    0.2763    4.1301 N.pl3     1 <0>        -0.6355
     14 C10         2.9658   -0.3478    5.2414 C.ar      1 <0>         0.5824
     15 N2          3.0184   -1.6744    5.2684 N.ar      1 <0>        -0.5574
     16 C11         3.5288   -2.3167    6.3050 C.ar      1 <0>         0.2443
     17 C12         4.0150   -1.5715    7.3783 C.ar      1 <0>        -0.2492
     18 C13         4.6345   -1.8920    8.6653 C.2       1 <0>        -0.1463
     19 C14         4.8891   -0.7248    9.2769 C.2       1 <0>         0.0434
     20 N3          4.4810    0.3183    8.4817 N.pl3     1 <0>        -0.4214
     21 C15         3.9436   -0.1636    7.3169 C.ar      1 <0>         0.3683
     22 N4          3.4190    0.4000    6.2336 N.ar      1 <0>        -0.5718
     23 C16         4.5967    1.6750    8.8129 C.ar      1 <0>         0.1251
     24 C17         5.1561    2.5665    7.9053 C.ar      1 <0>        -0.0740
     25 C18         5.2731    3.9056    8.2269 C.ar      1 <0>        -0.0995
     26 C19         4.8348    4.3668    9.4516 C.ar      1 <0>        -0.0655
     27 C20         4.2709    3.4794   10.3704 C.ar      1 <0>        -0.0082
     28 C21         4.1483    2.1283   10.0430 C.ar      1 <0>        -0.0725
     29 C22         3.8157    3.9547   11.6422 C.1       1 <0>         0.2484
     30 N5          3.4545    4.3318   12.6511 N.1       1 <0>        -0.3999
     31 H1         -0.6472   -3.1359    4.6919 H         1 <0>         0.0533
     32 H2         -0.7008   -4.8567    4.2402 H         1 <0>         0.1021
     33 H3          0.8657   -4.0561    4.5111 H         1 <0>         0.0623
     34 H4          1.0876   -1.9802    4.4660 H         1 <0>         0.1492
     35 H5          2.4408    0.8358    1.5477 H         1 <0>         0.1373
     36 H6         -1.9012   -2.5856    0.6619 H         1 <0>         0.0432
     37 H7         -1.3342   -1.4154   -0.5536 H         1 <0>         0.0430
     38 H8         -1.6000   -3.1151   -1.0106 H         1 <0>         0.0913
     39 H9          1.6411    1.6087   -0.2249 H         1 <0>         0.0568
     40 H10         3.1523    0.6876   -0.4144 H         1 <0>         0.0580
     41 H11         2.1151    0.9963   -1.8276 H         1 <0>         0.1034
     42 H12         2.4498    1.2429    4.0538 H         1 <0>         0.4249
     43 H13         3.5680   -3.3959    6.3202 H         1 <0>         0.1773
     44 H14         4.8458   -2.8790    9.0495 H         1 <0>         0.1624
     45 H15         5.3469   -0.6210   10.2495 H         1 <0>         0.1830
     46 H16         5.5009    2.2116    6.9453 H         1 <0>         0.1365
     47 H17         5.7093    4.5933    7.5175 H         1 <0>         0.1453
     48 H18         4.9282    5.4139    9.6994 H         1 <0>         0.1420
     49 H19         3.7090    1.4377   10.7477 H         1 <0>         0.1411
@<TRIPOS>BOND
     1    1    2 1
     2    1   31 1
     3    1   32 1
     4    1   33 1
     5    2    3 1
     6    3    8 ar
     7    3    4 ar
     8    4    5 ar
     9    4   34 1
    10    5    6 ar
    11    5   13 1
    12    6    7 ar
    13    6   35 1
    14    7    8 ar
    15    7   11 1
    16    8    9 1
    17    9   10 1
    18   10   36 1
    19   10   37 1
    20   10   38 1
    21   11   12 1
    22   12   39 1
    23   12   40 1
    24   12   41 1
    25   13   14 1
    26   13   42 1
    27   14   22 ar
    28   14   15 ar
    29   15   16 ar
    30   16   17 ar
    31   16   43 1
    32   17   21 ar
    33   17   18 1
    34   18   19 2
    35   18   44 1
    36   19   20 1
    37   19   45 1
    38   20   21 1
    39   20   23 1
    40   21   22 ar
    41   23   28 ar
    42   23   24 ar
    43   24   25 ar
    44   24   46 1
    45   25   26 ar
    46   25   47 1
    47   26   27 ar
    48   26   48 1
    49   27   28 ar
    50   27   29 1
    51   28   49 1
    52   29   30 3
@<TRIPOS>MOLECULE
CHEMBL401930
   60    64     0     0     0
SMALL
USER_CHARGES

@<TRIPOS>ATOM
      1 C1          0.1861    0.9402    0.2320 C.3       1 <0>        -0.1099
      2 C2          0.1885   -0.5661    0.2760 C.ar      1 <0>         0.0105
      3 C3          0.2130   -1.2834   -0.8862 C.ar      1 <0>        -0.1934
      4 C4          0.2155   -2.6762   -0.8597 C.ar      1 <0>         0.2379
      5 C5          0.1931   -3.3524    0.3500 C.ar      1 <0>        -0.2114
      6 C6          0.1681   -2.6355    1.5366 C.ar      1 <0>         0.1009
      7 C7          0.1715   -1.2297    1.5066 C.ar      1 <0>         0.0140
      8 N1          0.1514   -0.8003    2.7941 N.2       1 <0>        -0.5153
      9 C8          0.1414   -1.8338    3.6037 C.2       1 <0>         0.3723
     10 N2          0.1421   -2.9944    2.8723 N.pl3     1 <0>        -0.5878
     11 H1          0.1365   -3.8977    3.2257 H         1 <0>         0.4313
     12 C9          0.1201   -1.7586    5.0739 C.2       1 <0>        -0.2944
     13 C10        -0.0136   -0.5236    5.7239 C.2       1 <0>         0.3534
     14 C11        -0.0298   -0.4970    7.1313 C.2       1 <0>        -0.2716
     15 C12         0.0823   -1.6480    7.8290 C.2       1 <0>         0.1820
     16 N3          0.2123   -2.8452    7.1992 N.am      1 <0>        -0.6203
     17 H2          0.2910   -3.6547    7.7279 H         1 <0>         0.4189
     18 C13         0.2280   -2.9303    5.8560 C.2       1 <0>         0.5553
     19 O1          0.3405   -4.0175    5.3144 O.2       1 <0>        -0.5664
     20 N4         -0.1266    0.6435    4.9980 N.pl3     1 <0>        -0.6861
     21 C14        -0.1433    1.9361    5.6873 C.3       1 <0>         0.0780
     22 C15        -0.2761    3.0609    4.6587 C.3       1 <0>         0.1422
     23 H3          0.5199    2.9729    3.9193 H         1 <0>         0.1199
     24 C16        -0.1701    4.3933    5.3548 C.ar      1 <0>        -0.1060
     25 C17        -1.2638    4.9136    6.0217 C.ar      1 <0>        -0.1059
     26 C18        -1.1674    6.1356    6.6604 C.ar      1 <0>        -0.1011
     27 C19         0.0226    6.8384    6.6324 C.ar      1 <0>        -0.1059
     28 C20         1.1172    6.3184    5.9653 C.ar      1 <0>        -0.0315
     29 C21         1.0218    5.0921    5.3312 C.ar      1 <0>        -0.0968
     30 Cl1         2.6119    7.2005    5.9296 Cl        1 <0>        -0.0631
     31 O2         -1.5442    2.9634    4.0072 O.3       1 <0>        -0.5411
     32 N5          0.2402   -3.3953   -2.0590 N.pl3     1 <0>        -0.6312
     33 C22         0.3654   -4.8615   -2.0606 C.3       1 <0>         0.0865
     34 C23        -0.7404   -5.4402   -2.9506 C.3       1 <0>         0.0458
     35 O3         -0.7012   -4.7983   -4.2274 O.3       1 <0>        -0.3797
     36 C24        -0.9535   -3.3918   -4.1834 C.3       1 <0>         0.0453
     37 C25         0.1357   -2.7087   -3.3563 C.3       1 <0>         0.0882
     38 H4          1.2131    1.3055    0.2367 H         1 <0>         0.0703
     39 H5         -0.3149    1.2764   -0.6758 H         1 <0>         0.0645
     40 H6         -0.3416    1.3283    1.1032 H         1 <0>         0.0739
     41 H7          0.2303   -0.7662   -1.8342 H         1 <0>         0.1282
     42 H8          0.1946   -4.4322    0.3682 H         1 <0>         0.1205
     43 H9         -0.1314    0.4433    7.6528 H         1 <0>         0.1523
     44 H10         0.0686   -1.6162    8.9085 H         1 <0>         0.1725
     45 H11        -0.1949    0.6085    4.0311 H         1 <0>         0.4342
     46 H12        -0.9888    1.9705    6.3745 H         1 <0>         0.0761
     47 H13         0.7842    2.0621    6.2458 H         1 <0>         0.0833
     48 H14        -2.1940    4.3651    6.0433 H         1 <0>         0.1287
     49 H15        -2.0220    6.5415    7.1812 H         1 <0>         0.1361
     50 H16         0.0976    7.7936    7.1308 H         1 <0>         0.1361
     51 H17         1.8773    4.6836    4.8140 H         1 <0>         0.1367
     52 H18        -2.3004    3.0335    4.6059 H         1 <0>         0.3756
     53 H19         1.3408   -5.1463   -2.4550 H         1 <0>         0.0707
     54 H20         0.2549   -5.2405   -1.0446 H         1 <0>         0.0921
     55 H21        -0.5831   -6.5114   -3.0767 H         1 <0>         0.1043
     56 H22        -1.7107   -5.2663   -2.4854 H         1 <0>         0.0557
     57 H23        -0.9495   -2.9893   -5.1964 H         1 <0>         0.1053
     58 H24        -1.9246   -3.2104   -3.7226 H         1 <0>         0.0555
     59 H25        -0.1269   -1.6627   -3.1979 H         1 <0>         0.0936
     60 H26         1.0876   -2.7730   -3.8834 H         1 <0>         0.0702
@<TRIPOS>BOND
     1    1    2 1
     2    1   38 1
     3    1   39 1
     4    1   40 1
     5    2    7 ar
     6    2    3 ar
     7    3    4 ar
     8    3   41 1
     9    4    5 ar
    10    4   32 1
    11    5    6 ar
    12    5   42 1
    13    6   10 1
    14    6    7 ar
    15    7    8 1
    16    8    9 2
    17    9   10 1
    18    9   12 1
    19   10   11 1
    20   12   18 1
    21   12   13 2
    22   13   14 1
    23   13   20 1
    24   14   15 2
    25   14   43 1
    26   15   16 1
    27   15   44 1
    28   16   17 1
    29   16   18 am
    30   18   19 2
    31   20   21 1
    32   20   45 1
    33   21   22 1
    34   21   46 1
    35   21   47 1
    36   22   23 1
    37   22   24 1
    38   22   31 1
    39   24   29 ar
    40   24   25 ar
    41   25   26 ar
    42   25   48 1
    43   26   27 ar
    44   26   49 1
    45   27   28 ar
    46   27   50 1
    47   28   29 ar
    48   28   30 1
    49   29   51 1
    50   31   52 1
    51   32   37 1
    52   32   33 1
    53   33   34 1
    54   33   53 1
    55   33   54 1
    56   34   35 1
    57   34   55 1
    58   34   56 1
    59   35   36 1
    60   36   37 1
    61   36   57 1
    62   36   58 1
    63   37   59 1
    64   37   60 1
@<TRIPOS>MOLECULE
CHEMBL487229
   56    59     0     0     0
SMALL
USER_CHARGES

@<TRIPOS>ATOM
      1 C1         -0.3347   -0.4335   -1.6628 C.3       1 <0>         0.0799
      2 N1          0.1460   -0.0408   -0.3358 N.pl3     1 <0>        -0.9595
      3 C2          0.4142   -1.0167    0.6268 C.ar      1 <0>         0.1581
      4 C3         -0.6061   -1.4882    1.4434 C.ar      1 <0>        -0.1195
      5 C4         -0.3375   -2.4534    2.3937 C.ar      1 <0>        -0.0985
      6 C5          0.9456   -2.9504    2.5334 C.ar      1 <0>        -0.1102
      7 C6          1.9635   -2.4830    1.7227 C.ar      1 <0>        -0.0874
      8 C7          1.7004   -1.5221    0.7659 C.ar      1 <0>        -0.0990
      9 C8          2.8091   -1.0181   -0.1217 C.3       1 <0>         0.1616
     10 N2          3.4074    0.1783    0.4758 N.pl3     1 <0>        -0.6922
     11 C9          4.4782    0.8008   -0.1447 C.ar      1 <0>         0.5229
     12 C10         5.0602    1.9387    0.4191 C.ar      1 <0>        -0.4044
     13 C11         6.1256    2.5261   -0.2344 C.ar      1 <0>         0.2693
     14 N3          6.5616    1.9976   -1.3686 N.ar      1 <0>        -0.5872
     15 C12         5.9905    0.9176   -1.8804 C.ar      1 <0>         0.6168
     16 N4          4.9703    0.3211   -1.2822 N.ar      1 <0>        -0.6097
     17 N5          6.4761    0.3955   -3.0686 N.pl3     1 <0>        -0.6278
     18 C13         7.6228    0.9324   -3.6479 C.ar      1 <0>         0.1995
     19 C14         7.7513    0.9673   -5.0336 C.ar      1 <0>        -0.1545
     20 C15         8.8823    1.4963   -5.6118 C.ar      1 <0>        -0.0197
     21 C16         9.9071    2.0016   -4.8053 C.ar      1 <0>        -0.1807
     22 C17         9.7704    1.9634   -3.4136 C.ar      1 <0>        -0.0623
     23 C18         8.6385    1.4397   -2.8407 C.ar      1 <0>        -0.0986
     24 C19        11.0268    2.5751   -2.8455 C.3       1 <0>         0.1418
     25 N6         11.8565    2.9493   -3.9964 N.am      1 <0>        -0.7253
     26 C20        11.2066    2.6166   -5.1247 C.2       1 <0>         0.5628
     27 O1         11.6314    2.7973   -6.2496 O.2       1 <0>        -0.5293
     28 C21         4.5371    2.5124    1.7107 C.3       1 <0>         0.5239
     29 F1          5.2872    3.6414    2.0571 F         1 <0>        -0.1777
     30 F2          3.1955    2.8751    1.5503 F         1 <0>        -0.1599
     31 F3          4.6430    1.5534    2.7237 F         1 <0>        -0.1792
     32 S1          0.3712    1.5601    0.0230 S.o2      1 <0>         2.5975
     33 O2          1.2097    1.5600    1.1703 O.2       1 <0>        -0.9353
     34 O3          0.8099    2.1464   -1.1948 O.2       1 <0>        -0.9430
     35 C22        -1.2788    2.1777    0.4550 C.3       1 <0>        -0.6737
     36 H1         -1.4242   -0.4690   -1.6587 H         1 <0>         0.0611
     37 H2          0.0023    0.2939   -2.4012 H         1 <0>         0.0883
     38 H3          0.0599   -1.4175   -1.9157 H         1 <0>         0.0822
     39 H4         -1.6081   -1.1001    1.3353 H         1 <0>         0.1293
     40 H5         -1.1302   -2.8204    3.0288 H         1 <0>         0.1318
     41 H6          1.1531   -3.7050    3.2777 H         1 <0>         0.1314
     42 H7          2.9645   -2.8726    1.8349 H         1 <0>         0.1318
     43 H8          3.5702   -1.7912   -0.2269 H         1 <0>         0.0865
     44 H9          2.4046   -0.7705   -1.1032 H         1 <0>         0.0820
     45 H10         3.0539    0.5344    1.3058 H         1 <0>         0.4294
     46 H11         6.5980    3.4071    0.1744 H         1 <0>         0.1830
     47 H12         6.0172   -0.3441   -3.4967 H         1 <0>         0.4289
     48 H13         6.9604    0.5774   -5.6572 H         1 <0>         0.1371
     49 H14         8.9787    1.5210   -6.6872 H         1 <0>         0.1378
     50 H15         8.5371    1.4172   -1.7657 H         1 <0>         0.1463
     51 H16        10.7804    3.4594   -2.2578 H         1 <0>         0.1000
     52 H17        11.5512    1.8472   -2.2263 H         1 <0>         0.0977
     53 H18        12.7302    3.3683   -3.9504 H         1 <0>         0.4255
     54 H19        -1.6245    1.6855    1.3640 H         1 <0>         0.1303
     55 H20        -1.2321    3.2541    0.6199 H         1 <0>         0.1321
     56 H21        -1.9712    1.9646   -0.3594 H         1 <0>         0.1280
@<TRIPOS>BOND
     1    1    2 1
     2    1   36 1
     3    1   37 1
     4    1   38 1
     5    2    3 1
     6    2   32 1
     7    3    8 ar
     8    3    4 ar
     9    4    5 ar
    10    4   39 1
    11    5    6 ar
    12    5   40 1
    13    6    7 ar
    14    6   41 1
    15    7    8 ar
    16    7   42 1
    17    8    9 1
    18    9   10 1
    19    9   43 1
    20    9   44 1
    21   10   11 1
    22   10   45 1
    23   11   16 ar
    24   11   12 ar
    25   12   13 ar
    26   12   28 1
    27   13   14 ar
    28   13   46 1
    29   14   15 ar
    30   15   16 ar
    31   15   17 1
    32   17   18 1
    33   17   47 1
    34   18   23 ar
    35   18   19 ar
    36   19   20 ar
    37   19   48 1
    38   20   21 ar
    39   20   49 1
    40   21   26 1
    41   21   22 ar
    42   22   23 ar
    43   22   24 1
    44   23   50 1
    45   24   25 1
    46   24   51 1
    47   24   52 1
    48   25   26 am
    49   25   53 1
    50   26   27 2
    51   28   29 1
    52   28   30 1
    53   28   31 1
    54   32   33 2
    55   32   34 2
    56   32   35 1
    57   35   54 1
    58   35   55 1
    59   35   56 1
@<TRIPOS>MOLECULE
CHEMBL379118
   42    45     0     0     0
SMALL
USER_CHARGES

@<TRIPOS>ATOM
      1 C1          1.2319    1.2174    0.1544 C.3       1 <0>        -0.1153
      2 C2          0.5821   -0.1398    0.0706 C.ar      1 <0>        -0.0958
      3 C3          0.5684   -0.8241   -1.1305 C.ar      1 <0>        -0.1039
      4 C4         -0.0250   -2.0669   -1.2152 C.ar      1 <0>        -0.1079
      5 C5         -0.6144   -2.6376   -0.0854 C.ar      1 <0>        -0.1249
      6 C6         -0.6003   -1.9477    1.1264 C.ar      1 <0>        -0.0645
      7 C7          0.0036   -0.7017    1.2025 C.ar      1 <0>         0.1650
      8 N1          0.0254   -0.0082    2.4165 N.pl3     1 <0>        -0.6315
      9 C8         -0.0584   -0.7029    3.6132 C.ar      1 <0>         0.5728
     10 N2         -0.0333   -2.0302    3.5853 N.ar      1 <0>        -0.5560
     11 C9         -0.1099   -2.7382    4.6992 C.ar      1 <0>         0.2453
     12 C10        -0.2183   -2.0620    5.9135 C.ar      1 <0>        -0.2543
     13 C11        -0.3239   -2.4647    7.3171 C.2       1 <0>        -0.1336
     14 C12        -0.4015   -1.3381    8.0416 C.2       1 <0>         0.0356
     15 N3         -0.3538   -0.2440    7.2112 N.pl3     1 <0>        -0.4112
     16 C13        -0.2420   -0.6515    5.9068 C.ar      1 <0>         0.3803
     17 N4         -0.1550   -0.0193    4.7412 N.ar      1 <0>        -0.5417
     18 C14        -0.4106    1.0857    7.6335 C.ar      1 <0>         0.3467
     19 C15        -0.5180    1.3737    8.9890 C.ar      1 <0>        -0.1891
     20 C16        -0.5729    2.6957    9.3940 C.ar      1 <0>        -0.0472
     21 C17        -0.5183    3.6880    8.4247 C.ar      1 <0>        -0.1905
     22 C18        -0.4115    3.3293    7.0955 C.ar      1 <0>         0.1346
     23 N5         -0.3562    2.0601    6.7398 N.ar      1 <0>        -0.4789
     24 C19        -1.2518   -3.9689   -0.1737 C.2       1 <0>         0.5649
     25 O1         -1.7643   -4.4638    0.8111 O.2       1 <0>        -0.5353
     26 N6         -1.2645   -4.6335   -1.3461 N.am      1 <0>        -0.8523
     27 H1          2.2845    1.1009    0.4122 H         1 <0>         0.0758
     28 H2          1.1473    1.7208   -0.8087 H         1 <0>         0.0749
     29 H3          0.7338    1.8120    0.9202 H         1 <0>         0.0620
     30 H4          1.0235   -0.3843   -2.0056 H         1 <0>         0.1329
     31 H5         -0.0339   -2.5981   -2.1554 H         1 <0>         0.1259
     32 H6         -1.0549   -2.3840    2.0036 H         1 <0>         0.1652
     33 H7          0.0993    0.9589    2.4213 H         1 <0>         0.4237
     34 H8         -0.0892   -3.8176    4.6690 H         1 <0>         0.1788
     35 H9         -0.3369   -3.4757    7.6969 H         1 <0>         0.1656
     36 H10        -0.4891   -1.2971    9.1173 H         1 <0>         0.1847
     37 H11        -0.5584    0.5764    9.7164 H         1 <0>         0.1415
     38 H12        -0.6568    2.9498   10.4403 H         1 <0>         0.1448
     39 H13        -0.5592    4.7296    8.7072 H         1 <0>         0.1423
     40 H14        -0.3690    4.0977    6.3377 H         1 <0>         0.1649
     41 H15        -0.8555   -4.2385   -2.1320 H         1 <0>         0.4006
     42 H16        -1.6827   -5.5068   -1.4040 H         1 <0>         0.4051
@<TRIPOS>BOND
     1    1    2 1
     2    1   27 1
     3    1   28 1
     4    1   29 1
     5    2    7 ar
     6    2    3 ar
     7    3    4 ar
     8    3   30 1
     9    4    5 ar
    10    4   31 1
    11    5    6 ar
    12    5   24 1
    13    6    7 ar
    14    6   32 1
    15    7    8 1
    16    8    9 1
    17    8   33 1
    18    9   17 ar
    19    9   10 ar
    20   10   11 ar
    21   11   12 ar
    22   11   34 1
    23   12   16 ar
    24   12   13 1
    25   13   14 2
    26   13   35 1
    27   14   15 1
    28   14   36 1
    29   15   16 1
    30   15   18 1
    31   16   17 ar
    32   18   23 ar
    33   18   19 ar
    34   19   20 ar
    35   19   37 1
    36   20   21 ar
    37   20   38 1
    38   21   22 ar
    39   21   39 1
    40   22   23 ar
    41   22   40 1
    42   24   25 2
    43   24   26 am
    44   26   41 1
    45   26   42 1
@<TRIPOS>MOLECULE
CHEMBL382637
   41    44     0     0     0
SMALL
USER_CHARGES

@<TRIPOS>ATOM
      1 C1          0.7879   -0.0304    0.0633 C.3       1 <0>        -0.1488
      2 C2         -0.0674   -1.2834   -0.1350 C.3       1 <0>        -0.0859
      3 C3         -1.5261   -0.9142   -0.0519 C.ar      1 <0>        -0.1122
      4 C4         -2.2031   -1.0365    1.1459 C.ar      1 <0>        -0.0983
      5 C5         -3.5415   -0.6985    1.2229 C.ar      1 <0>        -0.1362
      6 C6         -4.2070   -0.2365    0.1018 C.ar      1 <0>        -0.1046
      7 C7         -3.5362   -0.1119   -1.0987 C.ar      1 <0>        -0.1119
      8 C8         -2.1898   -0.4453   -1.1781 C.ar      1 <0>         0.1706
      9 N1         -1.5062   -0.3149   -2.3905 N.pl3     1 <0>        -0.6346
     10 C9         -2.1665   -0.5477   -3.5871 C.ar      1 <0>         0.5762
     11 N2         -3.4135   -1.0022   -3.5515 N.ar      1 <0>        -0.5574
     12 C10        -4.0859   -1.2395   -4.6648 C.ar      1 <0>         0.2417
     13 C11        -3.4581   -1.0025   -5.8868 C.ar      1 <0>        -0.2578
     14 C12        -3.8452   -1.1346   -7.2926 C.2       1 <0>        -0.1347
     15 C13        -2.7910   -0.7460   -8.0259 C.2       1 <0>         0.0352
     16 N3         -1.7577   -0.3749   -7.1991 N.pl3     1 <0>        -0.4116
     17 C14        -2.1326   -0.5196   -5.8881 C.ar      1 <0>         0.3809
     18 N4         -1.5330   -0.3038   -4.7222 N.ar      1 <0>        -0.5443
     19 C15        -0.5108    0.0821   -7.6303 C.ar      1 <0>         0.3464
     20 C16        -0.2507    0.1920   -8.9913 C.ar      1 <0>        -0.1895
     21 C17         0.9890    0.6466   -9.4052 C.ar      1 <0>        -0.0472
     22 C18         1.9296    0.9768   -8.4389 C.ar      1 <0>        -0.1904
     23 C19         1.6028    0.8430   -7.1040 C.ar      1 <0>         0.1347
     24 N5          0.4106    0.4116   -6.7394 N.ar      1 <0>        -0.4787
     25 H1          1.8430   -0.2975    0.0032 H         1 <0>         0.0602
     26 H2          0.5524    0.6970   -0.7136 H         1 <0>         0.0513
     27 H3          0.5778    0.4019    1.0416 H         1 <0>         0.0596
     28 H4          0.1428   -1.7157   -1.1133 H         1 <0>         0.0684
     29 H5          0.1682   -2.0108    0.6419 H         1 <0>         0.0759
     30 H6         -1.6864   -1.3969    2.0231 H         1 <0>         0.1237
     31 H7         -4.0687   -0.7957    2.1604 H         1 <0>         0.1214
     32 H8         -5.2525    0.0267    0.1653 H         1 <0>         0.1233
     33 H9         -4.0564    0.2486   -1.9738 H         1 <0>         0.1334
     34 H10        -0.5699   -0.0615   -2.3946 H         1 <0>         0.4222
     35 H11        -5.0999   -1.6095   -4.6283 H         1 <0>         0.1769
     36 H12        -4.7974   -1.4795   -7.6677 H         1 <0>         0.1647
     37 H13        -2.7589   -0.7280   -9.1052 H         1 <0>         0.1841
     38 H14        -1.0059   -0.0741   -9.7161 H         1 <0>         0.1413
     39 H15         1.2197    0.7420  -10.4559 H         1 <0>         0.1448
     40 H16         2.9067    1.3343   -8.7284 H         1 <0>         0.1424
     41 H17         2.3312    1.0986   -6.3487 H         1 <0>         0.1649
@<TRIPOS>BOND
     1    1    2 1
     2    1   25 1
     3    1   26 1
     4    1   27 1
     5    2    3 1
     6    2   28 1
     7    2   29 1
     8    3    8 ar
     9    3    4 ar
    10    4    5 ar
    11    4   30 1
    12    5    6 ar
    13    5   31 1
    14    6    7 ar
    15    6   32 1
    16    7    8 ar
    17    7   33 1
    18    8    9 1
    19    9   10 1
    20    9   34 1
    21   10   18 ar
    22   10   11 ar
    23   11   12 ar
    24   12   13 ar
    25   12   35 1
    26   13   17 ar
    27   13   14 1
    28   14   15 2
    29   14   36 1
    30   15   16 1
    31   15   37 1
    32   16   17 1
    33   16   19 1
    34   17   18 ar
    35   19   24 ar
    36   19   20 ar
    37   20   21 ar
    38   20   38 1
    39   21   22 ar
    40   21   39 1
    41   22   23 ar
    42   22   40 1
    43   23   24 ar
    44   23   41 1
@<TRIPOS>MOLECULE
CHEMBL487227
   54    57     0     0     0
SMALL
USER_CHARGES

@<TRIPOS>ATOM
      1 C1          0.0303    1.3842    0.3656 C.3       1 <0>        -0.0544
      2 N1          0.0489   -0.0729    0.1803 N.4       1 <0>        -0.3810
      3 C2         -1.3221   -0.5943    0.2605 C.3       1 <0>        -0.0490
      4 C3          0.6179   -0.3919   -1.1359 C.3       1 <0>         0.0062
      5 H1          0.0083    0.0514   -1.9233 H         1 <0>         0.1443
      6 C4          0.6921   -1.9214   -1.3230 C.3       1 <0>        -0.1382
      7 C5          2.0142   -2.1456   -2.0980 C.3       1 <0>        -0.1255
      8 C6          2.9627   -1.0964   -1.4665 C.3       1 <0>        -0.1357
      9 C7          2.0612    0.1337   -1.2277 C.3       1 <0>         0.1372
     10 H2          2.3394    0.6255   -0.2955 H         1 <0>         0.1145
     11 N2          2.1835    1.0716   -2.3465 N.pl3     1 <0>        -0.7056
     12 C8          3.1736    2.0404   -2.3331 C.ar      1 <0>         0.5226
     13 C9          3.2959    2.9434   -3.3918 C.ar      1 <0>        -0.4053
     14 C10         4.2976    3.8924   -3.3359 C.ar      1 <0>         0.2793
     15 N3          5.1078    3.9188   -2.2877 N.ar      1 <0>        -0.5746
     16 C11         4.9688    3.0498   -1.2974 C.ar      1 <0>         0.6220
     17 N4          4.0176    2.1278   -1.3102 N.ar      1 <0>        -0.6168
     18 N5          5.8362    3.1101   -0.2195 N.pl3     1 <0>        -0.6182
     19 C12         6.9143    4.0031   -0.2376 C.ar      1 <0>         0.1245
     20 C13         7.3540    4.5904    0.9419 C.ar      1 <0>        -0.1016
     21 C14         8.4154    5.4702    0.9272 C.ar      1 <0>        -0.1167
     22 C15         9.0558    5.7772   -0.2720 C.ar      1 <0>         0.1394
     23 C16         8.6094    5.1847   -1.4464 C.ar      1 <0>        -0.1219
     24 C17         7.5536    4.3019   -1.4351 C.ar      1 <0>        -0.0536
     25 C18         9.4941    5.7125   -2.5525 C.3       1 <0>        -0.1153
     26 C19        10.4539    6.6444   -1.8441 C.2       1 <0>         0.5279
     27 O1         11.3442    7.2883   -2.3581 O.2       1 <0>        -0.4948
     28 N6         10.1346    6.6245   -0.5391 N.am      1 <0>        -0.6609
     29 C20         2.3563    2.8832   -4.5685 C.3       1 <0>         0.5283
     30 F1          2.6892    3.8881   -5.4830 F         1 <0>        -0.1663
     31 F2          2.4649    1.6338   -5.1885 F         1 <0>        -0.1773
     32 F3          1.0424    3.0717   -4.1263 F         1 <0>        -0.1823
     33 H3          1.0476    1.7711    0.3061 H         1 <0>         0.1221
     34 H4         -0.5786    1.8419   -0.4140 H         1 <0>         0.1236
     35 H5         -0.3919    1.6209    1.3423 H         1 <0>         0.1295
     36 H6         -1.9310   -0.1366   -0.5191 H         1 <0>         0.1232
     37 H7         -1.3083   -1.6755    0.1230 H         1 <0>         0.1260
     38 H8         -1.7443   -0.3576    1.2371 H         1 <0>         0.1279
     39 H9          0.7271   -2.4227   -0.3557 H         1 <0>         0.0932
     40 H10        -0.1573   -2.2759   -1.9069 H         1 <0>         0.1038
     41 H11         2.3914   -3.1552   -1.9345 H         1 <0>         0.0937
     42 H12         1.8763   -1.9511   -3.1616 H         1 <0>         0.0837
     43 H13         3.3644   -1.4646   -0.5225 H         1 <0>         0.0904
     44 H14         3.7704   -0.8489   -2.1553 H         1 <0>         0.0915
     45 H15         1.5713    1.0141   -3.0966 H         1 <0>         0.4173
     46 H16         4.4196    4.6051   -4.1381 H         1 <0>         0.1873
     47 H17         5.6968    2.5337    0.5481 H         1 <0>         0.4262
     48 H18         6.8620    4.3571    1.8745 H         1 <0>         0.1349
     49 H19         8.7516    5.9233    1.8482 H         1 <0>         0.1355
     50 H20         7.2198    3.8456   -2.3553 H         1 <0>         0.1421
     51 H21        10.0366    4.8964   -3.0297 H         1 <0>         0.1261
     52 H22         8.9024    6.2596   -3.2864 H         1 <0>         0.1278
     53 H23        10.5993    7.1388    0.1394 H         1 <0>         0.4161
     54 H24         0.6126   -0.4966    0.9020 H         1 <0>         0.4269
@<TRIPOS>BOND
     1    1    2 1
     2    1   33 1
     3    1   34 1
     4    1   35 1
     5    2    3 1
     6    2    4 1
     7    2   54 1
     8    3   36 1
     9    3   37 1
    10    3   38 1
    11    4    5 1
    12    4    9 1
    13    4    6 1
    14    6    7 1
    15    6   39 1
    16    6   40 1
    17    7    8 1
    18    7   41 1
    19    7   42 1
    20    8    9 1
    21    8   43 1
    22    8   44 1
    23    9   10 1
    24    9   11 1
    25   11   12 1
    26   11   45 1
    27   12   17 ar
    28   12   13 ar
    29   13   14 ar
    30   13   29 1
    31   14   15 ar
    32   14   46 1
    33   15   16 ar
    34   16   17 ar
    35   16   18 1
    36   18   19 1
    37   18   47 1
    38   19   24 ar
    39   19   20 ar
    40   20   21 ar
    41   20   48 1
    42   21   22 ar
    43   21   49 1
    44   22   28 1
    45   22   23 ar
    46   23   24 ar
    47   23   25 1
    48   24   50 1
    49   25   26 1
    50   25   51 1
    51   25   52 1
    52   26   27 2
    53   26   28 am
    54   28   53 1
    55   29   30 1
    56   29   31 1
    57   29   32 1
@<TRIPOS>MOLECULE
CHEMBL520059
   47    50     0     0     0
SMALL
USER_CHARGES

@<TRIPOS>ATOM
      1 C1          1.0786    1.4855    0.2156 C.ar      1 <0>        -0.0751
      2 C2          2.3436    2.0028   -0.0191 C.ar      1 <0>        -0.1612
      3 C3          3.3943    1.1348   -0.2472 C.ar      1 <0>         0.1008
      4 N1          3.2042   -0.1703   -0.2437 N.ar      1 <0>        -0.4674
      5 C4          2.0156   -0.6972   -0.0243 C.ar      1 <0>         0.0964
      6 C5          0.9176    0.1086    0.2119 C.ar      1 <0>        -0.1503
      7 C6          1.8521   -2.1953   -0.0316 C.3       1 <0>         0.1819
      8 N2          1.6517   -2.6580   -1.4071 N.pl3     1 <0>        -0.6925
      9 C7          1.4769   -4.0078   -1.6653 C.ar      1 <0>         0.5268
     10 C8          1.2907   -4.4607   -2.9736 C.ar      1 <0>        -0.4111
     11 C9          1.1205   -5.8149   -3.1839 C.ar      1 <0>         0.2741
     12 N3          1.1385   -6.6394   -2.1467 N.ar      1 <0>        -0.5864
     13 C10         1.3170   -6.1820   -0.9162 C.ar      1 <0>         0.6211
     14 N4          1.4894   -4.8913   -0.6727 N.ar      1 <0>        -0.6123
     15 N5          1.3291   -7.0762    0.1413 N.pl3     1 <0>        -0.6290
     16 C11         1.2706   -8.4530   -0.1054 C.ar      1 <0>         0.1402
     17 C12         1.9686   -8.9971   -1.1760 C.ar      1 <0>        -0.0734
     18 C13         1.9105  -10.3545   -1.4200 C.ar      1 <0>        -0.1298
     19 C14         1.1545  -11.1764   -0.5944 C.ar      1 <0>         0.1481
     20 C15         0.4573  -10.6325    0.4763 C.ar      1 <0>        -0.1040
     21 C16         0.5192   -9.2758    0.7235 C.ar      1 <0>        -0.1031
     22 C17        -0.3608  -11.5275    1.3705 C.3       1 <0>        -0.0766
     23 C18        -0.9604  -12.6657    0.5442 C.3       1 <0>        -0.1389
     24 C19         0.1070  -13.2981   -0.3076 C.2       1 <0>         0.5206
     25 O1          0.0773  -14.4924   -0.5174 O.2       1 <0>        -0.5269
     26 N6          1.0940  -12.5539   -0.8393 N.am      1 <0>        -0.6632
     27 C20         1.2755   -3.4935   -4.1291 C.3       1 <0>         0.5282
     28 F1          1.0741   -4.1956   -5.3223 F         1 <0>        -0.1727
     29 F2          0.2396   -2.5702   -3.9508 F         1 <0>        -0.1794
     30 F3          2.4985   -2.8168   -4.1870 F         1 <0>        -0.1774
     31 H1          0.2395    2.1397    0.4012 H         1 <0>         0.1394
     32 H2          2.5055    3.0705   -0.0239 H         1 <0>         0.1397
     33 H3          4.3826    1.5296   -0.4308 H         1 <0>         0.1608
     34 H4         -0.0533   -0.3290    0.3914 H         1 <0>         0.1384
     35 H5          2.7472   -2.6605    0.3814 H         1 <0>         0.0922
     36 H6          0.9880   -2.4695    0.5736 H         1 <0>         0.0903
     37 H7          1.6413   -2.0192   -2.1370 H         1 <0>         0.4146
     38 H8          0.9738   -6.1979   -4.1830 H         1 <0>         0.1820
     39 H9          1.3780   -6.7485    1.0530 H         1 <0>         0.4262
     40 H10         2.5567   -8.3579   -1.8179 H         1 <0>         0.1361
     41 H11         2.4531  -10.7773   -2.2525 H         1 <0>         0.1335
     42 H12        -0.0201   -8.8537    1.5586 H         1 <0>         0.1337
     43 H13         0.2772  -11.9423    2.1509 H         1 <0>         0.0854
     44 H14        -1.1635  -10.9486    1.8274 H         1 <0>         0.0929
     45 H15        -1.3813  -13.4161    1.2135 H         1 <0>         0.1105
     46 H16        -1.7488  -12.2714   -0.0968 H         1 <0>         0.1050
     47 H17         1.7680  -12.9744   -1.3959 H         1 <0>         0.4117
@<TRIPOS>BOND
     1    1    6 ar
     2    1    2 ar
     3    1   31 1
     4    2    3 ar
     5    2   32 1
     6    3    4 ar
     7    3   33 1
     8    4    5 ar
     9    5    6 ar
    10    5    7 1
    11    6   34 1
    12    7    8 1
    13    7   35 1
    14    7   36 1
    15    8    9 1
    16    8   37 1
    17    9   14 ar
    18    9   10 ar
    19   10   11 ar
    20   10   27 1
    21   11   12 ar
    22   11   38 1
    23   12   13 ar
    24   13   14 ar
    25   13   15 1
    26   15   16 1
    27   15   39 1
    28   16   21 ar
    29   16   17 ar
    30   17   18 ar
    31   17   40 1
    32   18   19 ar
    33   18   41 1
    34   19   26 1
    35   19   20 ar
    36   20   21 ar
    37   20   22 1
    38   21   42 1
    39   22   23 1
    40   22   43 1
    41   22   44 1
    42   23   24 1
    43   23   45 1
    44   23   46 1
    45   24   25 2
    46   24   26 am
    47   26   47 1
    48   27   28 1
    49   27   29 1
    50   27   30 1
@<TRIPOS>MOLECULE
CHEMBL380424
   62    65     0     0     0
SMALL
USER_CHARGES

@<TRIPOS>ATOM
      1 C1          3.7489   -3.8383   -1.9189 C.3       1 <0>         0.0256
      2 O1          2.5164   -3.5060   -1.2766 O.3       1 <0>        -0.2993
      3 C2          1.8867   -2.3759   -1.6961 C.ar      1 <0>         0.1697
      4 C3          2.4416   -1.6081   -2.7079 C.ar      1 <0>        -0.2285
      5 C4          1.7989   -0.4544   -3.1363 C.ar      1 <0>         0.2451
      6 C5          0.5999   -0.0691   -2.5520 C.ar      1 <0>        -0.2648
      7 C6          0.0438   -0.8359   -1.5400 C.ar      1 <0>         0.1708
      8 C7          0.6839   -1.9937   -1.1143 C.ar      1 <0>         0.0094
      9 O2          0.1353   -2.7506   -0.1240 O.3       1 <0>        -0.3104
     10 C8          0.5102   -2.4335    1.2180 C.3       1 <0>         0.0342
     11 O3         -1.1302   -0.4579   -0.9671 O.3       1 <0>        -0.2994
     12 C9         -1.7351    0.7403   -1.4575 C.3       1 <0>         0.0243
     13 N1          2.3604    0.3211   -4.1577 N.pl3     1 <0>        -0.6360
     14 C10         3.0661   -0.2891   -5.1829 C.ar      1 <0>         0.5812
     15 N2          3.0965   -1.6155   -5.2373 N.ar      1 <0>        -0.5576
     16 C11         3.7554   -2.2449   -6.1951 C.ar      1 <0>         0.2438
     17 C12         4.4234   -1.4860   -7.1552 C.ar      1 <0>        -0.2483
     18 C13         5.2370   -1.7903   -8.3334 C.2       1 <0>        -0.1482
     19 C14         5.6102   -0.6153   -8.8635 C.2       1 <0>         0.0458
     20 N3          5.0990    0.4179   -8.1165 N.pl3     1 <0>        -0.4200
     21 C15         4.3704   -0.0788   -7.0676 C.ar      1 <0>         0.3672
     22 N4          3.6799    0.4712   -6.0741 N.ar      1 <0>        -0.5719
     23 C16         5.2941    1.7790   -8.3870 C.ar      1 <0>         0.1186
     24 C17         4.2065    2.6434   -8.4214 C.ar      1 <0>        -0.0760
     25 C18         4.3935    3.9867   -8.6877 C.ar      1 <0>        -0.1065
     26 C19         5.6618    4.4788   -8.9207 C.ar      1 <0>        -0.0821
     27 C20         6.7607    3.6188   -8.8879 C.ar      1 <0>        -0.1199
     28 C21         6.5721    2.2639   -8.6144 C.ar      1 <0>        -0.0585
     29 C22         8.1205    4.1429   -9.1376 C.2       1 <0>         0.5613
     30 O4          9.0760    3.3922   -9.1085 O.2       1 <0>        -0.5298
     31 N5          8.3005    5.4531   -9.3975 N.am      1 <0>        -0.7246
     32 C23         9.6479    5.9724   -9.6449 C.3       1 <0>         0.1214
     33 C24         9.5734    7.4772   -9.9116 C.3       1 <0>        -0.1346
     34 C25        10.9806    8.0195  -10.1700 C.3       1 <0>         0.0789
     35 O5         10.9110    9.4249  -10.4190 O.3       1 <0>        -0.5749
     36 H1          3.5764   -3.9781   -2.9860 H         1 <0>         0.0624
     37 H2          4.4658   -3.0310   -1.7694 H         1 <0>         0.0533
     38 H3          4.1447   -4.7594   -1.4911 H         1 <0>         0.1022
     39 H4          3.3743   -1.9072   -3.1630 H         1 <0>         0.1493
     40 H5          0.1006    0.8284   -2.8857 H         1 <0>         0.1370
     41 H6          0.2240   -1.4059    1.4421 H         1 <0>         0.0429
     42 H7          0.0035   -3.1101    1.9063 H         1 <0>         0.0913
     43 H8          1.5890   -2.5428    1.3294 H         1 <0>         0.0432
     44 H9         -1.0539    1.5782   -1.3095 H         1 <0>         0.0567
     45 H10        -1.9500    0.6301   -2.5204 H         1 <0>         0.0579
     46 H11        -2.6630    0.9265   -0.9166 H         1 <0>         0.1034
     47 H12         2.2557    1.2853   -4.1479 H         1 <0>         0.4245
     48 H13         3.7761   -3.3241   -6.2329 H         1 <0>         0.1773
     49 H14         5.4888   -2.7726   -8.7050 H         1 <0>         0.1626
     50 H15         6.2219   -0.4992   -9.7460 H         1 <0>         0.1825
     51 H16         3.2117    2.2642   -8.2399 H         1 <0>         0.1340
     52 H17         3.5443    4.6535   -8.7138 H         1 <0>         0.1410
     53 H18         5.8038    5.5290   -9.1288 H         1 <0>         0.1336
     54 H19         7.4190    1.5944   -8.5839 H         1 <0>         0.1448
     55 H20         7.5380    6.0522   -9.4207 H         1 <0>         0.4023
     56 H21        10.2741    5.7887   -8.7719 H         1 <0>         0.0738
     57 H22        10.0771    5.4705  -10.5121 H         1 <0>         0.0741
     58 H23         8.9472    7.6609  -10.7846 H         1 <0>         0.0787
     59 H24         9.1442    7.9790   -9.0444 H         1 <0>         0.0785
     60 H25        11.6068    7.8358   -9.2969 H         1 <0>         0.0507
     61 H26        11.4098    7.5176  -11.0371 H         1 <0>         0.0509
     62 H27        11.7688    9.8367  -10.5914 H         1 <0>         0.3851
@<TRIPOS>BOND
     1    1    2 1
     2    1   36 1
     3    1   37 1
     4    1   38 1
     5    2    3 1
     6    3    8 ar
     7    3    4 ar
     8    4    5 ar
     9    4   39 1
    10    5    6 ar
    11    5   13 1
    12    6    7 ar
    13    6   40 1
    14    7    8 ar
    15    7   11 1
    16    8    9 1
    17    9   10 1
    18   10   41 1
    19   10   42 1
    20   10   43 1
    21   11   12 1
    22   12   44 1
    23   12   45 1
    24   12   46 1
    25   13   14 1
    26   13   47 1
    27   14   22 ar
    28   14   15 ar
    29   15   16 ar
    30   16   17 ar
    31   16   48 1
    32   17   21 ar
    33   17   18 1
    34   18   19 2
    35   18   49 1
    36   19   20 1
    37   19   50 1
    38   20   21 1
    39   20   23 1
    40   21   22 ar
    41   23   28 ar
    42   23   24 ar
    43   24   25 ar
    44   24   51 1
    45   25   26 ar
    46   25   52 1
    47   26   27 ar
    48   26   53 1
    49   27   28 ar
    50   27   29 1
    51   28   54 1
    52   29   30 2
    53   29   31 am
    54   31   32 1
    55   31   55 1
    56   32   33 1
    57   32   56 1
    58   32   57 1
    59   33   34 1
    60   33   58 1
    61   33   59 1
    62   34   35 1
    63   34   60 1
    64   34   61 1
    65   35   62 1
@<TRIPOS>MOLECULE
CHEMBL378811
   47    50     0     0     0
SMALL
USER_CHARGES

@<TRIPOS>ATOM
      1 C1         -3.4372   -3.9339   -2.2691 C.3       1 <0>         0.0258
      2 O1         -2.2736   -3.5696   -1.5240 O.3       1 <0>        -0.2992
      3 C2         -2.3505   -2.4385   -0.7729 C.ar      1 <0>         0.1695
      4 C3         -3.5231   -1.6998   -0.7503 C.ar      1 <0>        -0.2286
      5 C4         -3.6018   -0.5450    0.0165 C.ar      1 <0>         0.2445
      6 C5         -2.5063   -0.1295    0.7614 C.ar      1 <0>        -0.2643
      7 C6         -1.3330   -0.8671    0.7397 C.ar      1 <0>         0.1711
      8 C7         -1.2552   -2.0260   -0.0234 C.ar      1 <0>         0.0097
      9 O2         -0.1047   -2.7543   -0.0408 O.3       1 <0>        -0.3104
     10 C8          0.8620   -2.4164   -1.0375 C.3       1 <0>         0.0342
     11 O3         -0.2598   -0.4595    1.4687 O.3       1 <0>        -0.2994
     12 C9         -0.4122    0.7379    2.2336 C.3       1 <0>         0.0241
     13 N1         -4.7862    0.2011    0.0381 N.pl3     1 <0>        -0.6355
     14 C10        -6.0112   -0.4404   -0.0583 C.ar      1 <0>         0.5831
     15 N2         -6.0401   -1.7680   -0.0528 N.ar      1 <0>        -0.5568
     16 C11        -7.1829   -2.4266   -0.1424 C.ar      1 <0>         0.2447
     17 C12        -8.3670   -1.6975   -0.2436 C.ar      1 <0>        -0.2491
     18 C13        -9.7861   -2.0379   -0.3576 C.2       1 <0>        -0.1459
     19 C14       -10.4612   -0.8797   -0.4197 C.2       1 <0>         0.0428
     20 N3         -9.5848    0.1761   -0.3543 N.pl3     1 <0>        -0.4169
     21 C15        -8.3000   -0.2881   -0.2464 C.ar      1 <0>         0.3670
     22 N4         -7.1086    0.2923   -0.1470 N.ar      1 <0>        -0.5728
     23 C16        -9.9507    1.5283   -0.3922 C.ar      1 <0>         0.0712
     24 C17       -10.8071    2.0009   -1.3835 C.ar      1 <0>        -0.0742
     25 C18       -11.1397    3.3454   -1.3794 C.ar      1 <0>        -0.1549
     26 C19       -10.6150    4.1679   -0.3996 C.ar      1 <0>         0.1027
     27 N5         -9.8060    3.6891    0.5250 N.ar      1 <0>        -0.4659
     28 C20        -9.4692    2.4151    0.5610 C.ar      1 <0>         0.1222
     29 H1         -3.2415   -4.8523   -2.8225 H         1 <0>         0.1021
     30 H2         -4.2715   -4.0922   -1.5857 H         1 <0>         0.0623
     31 H3         -3.6863   -3.1349   -2.9675 H         1 <0>         0.0530
     32 H4         -4.3756   -2.0224   -1.3295 H         1 <0>         0.1490
     33 H5         -2.5683    0.7689    1.3575 H         1 <0>         0.1375
     34 H6          1.7280   -3.0711   -0.9404 H         1 <0>         0.0913
     35 H7          0.4220   -2.5401   -2.0270 H         1 <0>         0.0431
     36 H8          1.1732   -1.3801   -0.9052 H         1 <0>         0.0430
     37 H9         -0.6455    1.5679    1.5667 H         1 <0>         0.0569
     38 H10        -1.2223    0.6099    2.9515 H         1 <0>         0.0582
     39 H11         0.5151    0.9494    2.7661 H         1 <0>         0.1036
     40 H12        -4.7496    1.1668    0.1206 H         1 <0>         0.4252
     41 H13        -7.1989   -3.5064   -0.1377 H         1 <0>         0.1778
     42 H14       -10.2091   -3.0313   -0.3863 H         1 <0>         0.1628
     43 H15       -11.5339   -0.7908   -0.5080 H         1 <0>         0.1817
     44 H16       -11.2019    1.3355   -2.1369 H         1 <0>         0.1431
     45 H17       -11.8010    3.7468   -2.1331 H         1 <0>         0.1470
     46 H18       -10.8710    5.2171   -0.3917 H         1 <0>         0.1655
     47 H19        -8.8079    2.0588    1.3370 H         1 <0>         0.1581
@<TRIPOS>BOND
     1    1    2 1
     2    1   29 1
     3    1   30 1
     4    1   31 1
     5    2    3 1
     6    3    8 ar
     7    3    4 ar
     8    4    5 ar
     9    4   32 1
    10    5    6 ar
    11    5   13 1
    12    6    7 ar
    13    6   33 1
    14    7    8 ar
    15    7   11 1
    16    8    9 1
    17    9   10 1
    18   10   34 1
    19   10   35 1
    20   10   36 1
    21   11   12 1
    22   12   37 1
    23   12   38 1
    24   12   39 1
    25   13   14 1
    26   13   40 1
    27   14   22 ar
    28   14   15 ar
    29   15   16 ar
    30   16   17 ar
    31   16   41 1
    32   17   21 ar
    33   17   18 1
    34   18   19 2
    35   18   42 1
    36   19   20 1
    37   19   43 1
    38   20   21 1
    39   20   23 1
    40   21   22 ar
    41   23   28 ar
    42   23   24 ar
    43   24   25 ar
    44   24   44 1
    45   25   26 ar
    46   25   45 1
    47   26   27 ar
    48   26   46 1
    49   27   28 ar
    50   28   47 1
@<TRIPOS>MOLECULE
CHEMBL208368
   51    54     0     0     0
SMALL
USER_CHARGES

@<TRIPOS>ATOM
      1 C1          0.9055    1.4076   -1.0357 C.3       1 <0>        -0.1182
      2 C2          0.7639   -0.0825   -0.8606 C.ar      1 <0>        -0.0793
      3 C3          0.7577   -0.9099   -1.9685 C.ar      1 <0>        -0.1055
      4 C4          0.6285   -2.2760   -1.8112 C.ar      1 <0>        -0.1130
      5 C5          0.5048   -2.8183   -0.5389 C.ar      1 <0>         0.1138
      6 C6          0.5113   -1.9848    0.5716 C.ar      1 <0>        -0.0972
      7 C7          0.6461   -0.6200    0.4081 C.ar      1 <0>        -0.1044
      8 N1          0.3731   -4.2036   -0.3761 N.pl3     1 <0>        -0.4177
      9 C8         -0.5188   -4.9960   -1.0570 C.2       1 <0>         0.0461
     10 C9         -0.3862   -6.2730   -0.6661 C.2       1 <0>        -0.1520
     11 C10         0.6732   -6.3009    0.3438 C.ar      1 <0>        -0.2499
     12 C11         1.1191   -4.9689    0.4817 C.ar      1 <0>         0.3671
     13 N2          2.0958   -4.7113    1.3449 N.ar      1 <0>        -0.5708
     14 C12         2.6377   -5.6868    2.0551 C.ar      1 <0>         0.5800
     15 N3          2.2434   -6.9499    1.9465 N.ar      1 <0>        -0.5584
     16 C13         1.2718   -7.2934    1.1178 C.ar      1 <0>         0.2422
     17 N4          3.6547   -5.3792    2.9452 N.pl3     1 <0>        -0.6363
     18 C14         4.3256   -6.4041    3.6230 C.ar      1 <0>         0.2458
     19 C15         4.5337   -7.6273    3.0003 C.ar      1 <0>        -0.2289
     20 C16         5.1978   -8.6426    3.6707 C.ar      1 <0>         0.1698
     21 C17         5.6554   -8.4357    4.9665 C.ar      1 <0>         0.0086
     22 C18         5.4467   -7.2109    5.5892 C.ar      1 <0>         0.1713
     23 C19         4.7874   -6.1948    4.9154 C.ar      1 <0>        -0.2655
     24 O1          5.8941   -7.0076    6.8572 O.3       1 <0>        -0.2994
     25 C20         5.6448   -5.7247    7.4352 C.3       1 <0>         0.0243
     26 O2          6.3076   -9.4328    5.6260 O.3       1 <0>        -0.3105
     27 C21         7.7282   -9.4857    5.4808 C.3       1 <0>         0.0344
     28 O3          5.4012   -9.8409    3.0607 O.3       1 <0>        -0.2994
     29 C22         4.9037   -9.9836    1.7287 C.3       1 <0>         0.0258
     30 H1          1.9618    1.6764   -1.0214 H         1 <0>         0.0745
     31 H2          0.4679    1.7046   -1.9888 H         1 <0>         0.0699
     32 H3          0.3893    1.9196   -0.2236 H         1 <0>         0.0697
     33 H4          0.8537   -0.4875   -2.9578 H         1 <0>         0.1325
     34 H5          0.6234   -2.9217   -2.6768 H         1 <0>         0.1301
     35 H6          0.4152   -2.4036    1.5624 H         1 <0>         0.1269
     36 H7          0.6554    0.0285    1.2717 H         1 <0>         0.1314
     37 H8         -1.2225   -4.6437   -1.7966 H         1 <0>         0.1809
     38 H9         -0.9529   -7.1184   -1.0273 H         1 <0>         0.1613
     39 H10         0.9573   -8.3232    1.0336 H         1 <0>         0.1765
     40 H11         3.9016   -4.4537    3.0984 H         1 <0>         0.4244
     41 H12         4.1777   -7.7881    1.9934 H         1 <0>         0.1495
     42 H13         4.6290   -5.2414    5.3976 H         1 <0>         0.1370
     43 H14         4.5703   -5.5452    7.4715 H         1 <0>         0.0579
     44 H15         6.0523   -5.6962    8.4458 H         1 <0>         0.1034
     45 H16         6.1217   -4.9543    6.8293 H         1 <0>         0.0567
     46 H17         7.9813   -9.6160    4.4286 H         1 <0>         0.0431
     47 H18         8.1657   -8.5571    5.8474 H         1 <0>         0.0428
     48 H19         8.1213  -10.3243    6.0556 H         1 <0>         0.0912
     49 H20         5.3755   -9.2426    1.0833 H         1 <0>         0.0531
     50 H21         5.1320  -10.9839    1.3608 H         1 <0>         0.1020
     51 H22         3.8242   -9.8331    1.7260 H         1 <0>         0.0624
@<TRIPOS>BOND
     1    1    2 1
     2    1   30 1
     3    1   31 1
     4    1   32 1
     5    2    7 ar
     6    2    3 ar
     7    3    4 ar
     8    3   33 1
     9    4    5 ar
    10    4   34 1
    11    5    6 ar
    12    5    8 1
    13    6    7 ar
    14    6   35 1
    15    7   36 1
    16    8   12 1
    17    8    9 1
    18    9   10 2
    19    9   37 1
    20   10   11 1
    21   10   38 1
    22   11   16 ar
    23   11   12 ar
    24   12   13 ar
    25   13   14 ar
    26   14   15 ar
    27   14   17 1
    28   15   16 ar
    29   16   39 1
    30   17   18 1
    31   17   40 1
    32   18   23 ar
    33   18   19 ar
    34   19   20 ar
    35   19   41 1
    36   20   21 ar
    37   20   28 1
    38   21   22 ar
    39   21   26 1
    40   22   23 ar
    41   22   24 1
    42   23   42 1
    43   24   25 1
    44   25   43 1
    45   25   44 1
    46   25   45 1
    47   26   27 1
    48   27   46 1
    49   27   47 1
    50   27   48 1
    51   28   29 1
    52   29   49 1
    53   29   50 1
    54   29   51 1
@<TRIPOS>MOLECULE
CHEMBL207147
   47    50     0     0     0
SMALL
USER_CHARGES

@<TRIPOS>ATOM
      1 C1         -3.4372   -3.9339   -2.2691 C.3       1 <0>         0.0257
      2 O1         -2.2736   -3.5696   -1.5239 O.3       1 <0>        -0.2989
      3 C2         -2.3505   -2.4385   -0.7729 C.ar      1 <0>         0.1697
      4 C3         -3.5231   -1.6998   -0.7502 C.ar      1 <0>        -0.2283
      5 C4         -3.6018   -0.5450    0.0165 C.ar      1 <0>         0.2430
      6 C5         -2.5063   -0.1295    0.7613 C.ar      1 <0>        -0.2637
      7 C6         -1.3330   -0.8671    0.7397 C.ar      1 <0>         0.1711
      8 C7         -1.2552   -2.0260   -0.0234 C.ar      1 <0>         0.0107
      9 O2         -0.1047   -2.7543   -0.0408 O.3       1 <0>        -0.3104
     10 C8          0.8620   -2.4164   -1.0375 C.3       1 <0>         0.0342
     11 O3         -0.2598   -0.4594    1.4687 O.3       1 <0>        -0.2991
     12 C9         -0.4122    0.7380    2.2336 C.3       1 <0>         0.0241
     13 N1         -4.7862    0.2011    0.0381 N.pl3     1 <0>        -0.6346
     14 C10        -6.0111   -0.4403   -0.0583 C.ar      1 <0>         0.5847
     15 N2         -6.0401   -1.7679   -0.0528 N.ar      1 <0>        -0.5553
     16 C11        -7.1830   -2.4263   -0.1424 C.ar      1 <0>         0.2463
     17 C12        -8.3670   -1.6972   -0.2436 C.ar      1 <0>        -0.2479
     18 C13        -9.7863   -2.0378   -0.3576 C.2       1 <0>        -0.1397
     19 C14       -10.4616   -0.8800   -0.4197 C.2       1 <0>         0.0416
     20 N3         -9.5853    0.1764   -0.3543 N.pl3     1 <0>        -0.4241
     21 C15        -8.2999   -0.2880   -0.2464 C.ar      1 <0>         0.3701
     22 N4         -7.1086    0.2923   -0.1470 N.ar      1 <0>        -0.5727
     23 C16        -9.9504    1.5250   -0.3918 C.ar      1 <0>         0.1884
     24 C17        -9.4666    2.4233    0.5584 C.ar      1 <0>        -0.1574
     25 C18        -9.8498    3.7462    0.4873 C.ar      1 <0>         0.1420
     26 N5        -10.6633    4.1651   -0.4641 N.ar      1 <0>        -0.4746
     27 C19       -11.1428    3.3460   -1.3820 C.ar      1 <0>         0.1929
     28 C20       -10.8023    2.0070   -1.3827 C.ar      1 <0>        -0.1597
     29 Cl1       -12.2092    3.9602   -2.6064 Cl        1 <0>        -0.0137
     30 H1         -3.2415   -4.8523   -2.8225 H         1 <0>         0.1025
     31 H2         -4.2715   -4.0923   -1.5857 H         1 <0>         0.0622
     32 H3         -3.6863   -3.1350   -2.9675 H         1 <0>         0.0532
     33 H4         -4.3756   -2.0224   -1.3294 H         1 <0>         0.1489
     34 H5         -2.5683    0.7689    1.3575 H         1 <0>         0.1375
     35 H6          1.7280   -3.0711   -0.9404 H         1 <0>         0.0916
     36 H7          0.4220   -2.5401   -2.0271 H         1 <0>         0.0433
     37 H8          1.1732   -1.3801   -0.9053 H         1 <0>         0.0432
     38 H9          0.5151    0.9494    2.7660 H         1 <0>         0.1038
     39 H10        -0.6455    1.5679    1.5666 H         1 <0>         0.0569
     40 H11        -1.2223    0.6099    2.9515 H         1 <0>         0.0581
     41 H12        -4.7496    1.1668    0.1206 H         1 <0>         0.4253
     42 H13        -7.1991   -3.5062   -0.1377 H         1 <0>         0.1793
     43 H14       -10.2090   -3.0312   -0.3866 H         1 <0>         0.1652
     44 H15       -11.5343   -0.7916   -0.5086 H         1 <0>         0.1845
     45 H16        -8.8010    2.0876    1.3398 H         1 <0>         0.1487
     46 H17        -9.4798    4.4484    1.2196 H         1 <0>         0.1774
     47 H18       -11.1940    1.3427   -2.1388 H         1 <0>         0.1538
@<TRIPOS>BOND
     1    1    2 1
     2    1   30 1
     3    1   31 1
     4    1   32 1
     5    2    3 1
     6    3    8 ar
     7    3    4 ar
     8    4    5 ar
     9    4   33 1
    10    5    6 ar
    11    5   13 1
    12    6    7 ar
    13    6   34 1
    14    7    8 ar
    15    7   11 1
    16    8    9 1
    17    9   10 1
    18   10   35 1
    19   10   36 1
    20   10   37 1
    21   11   12 1
    22   12   38 1
    23   12   39 1
    24   12   40 1
    25   13   14 1
    26   13   41 1
    27   14   22 ar
    28   14   15 ar
    29   15   16 ar
    30   16   17 ar
    31   16   42 1
    32   17   21 ar
    33   17   18 1
    34   18   19 2
    35   18   43 1
    36   19   20 1
    37   19   44 1
    38   20   21 1
    39   20   23 1
    40   21   22 ar
    41   23   28 ar
    42   23   24 ar
    43   24   25 ar
    44   24   45 1
    45   25   26 ar
    46   25   46 1
    47   26   27 ar
    48   27   28 ar
    49   27   29 1
    50   28   47 1
@<TRIPOS>MOLECULE
CHEMBL207820
   47    50     0     0     0
SMALL
USER_CHARGES

@<TRIPOS>ATOM
      1 C1          3.7489   -3.8383   -1.9189 C.3       1 <0>         0.0257
      2 O1          2.5164   -3.5060   -1.2767 O.3       1 <0>        -0.2991
      3 C2          1.8867   -2.3759   -1.6961 C.ar      1 <0>         0.1698
      4 C3          2.4416   -1.6081   -2.7079 C.ar      1 <0>        -0.2284
      5 C4          1.7989   -0.4544   -3.1363 C.ar      1 <0>         0.2446
      6 C5          0.5999   -0.0691   -2.5520 C.ar      1 <0>        -0.2645
      7 C6          0.0438   -0.8359   -1.5400 C.ar      1 <0>         0.1710
      8 C7          0.6839   -1.9937   -1.1143 C.ar      1 <0>         0.0098
      9 O2          0.1356   -2.7503   -0.1237 O.3       1 <0>        -0.3103
     10 C8          0.5105   -2.4328    1.2182 C.3       1 <0>         0.0342
     11 O3         -1.1302   -0.4579   -0.9671 O.3       1 <0>        -0.2993
     12 C9         -1.7351    0.7403   -1.4575 C.3       1 <0>         0.0242
     13 N1          2.3604    0.3211   -4.1577 N.pl3     1 <0>        -0.6358
     14 C10         3.0661   -0.2891   -5.1829 C.ar      1 <0>         0.5836
     15 N2          3.0964   -1.6156   -5.2373 N.ar      1 <0>        -0.5565
     16 C11         3.7550   -2.2450   -6.1954 C.ar      1 <0>         0.2443
     17 C12         4.4226   -1.4862   -7.1557 C.ar      1 <0>        -0.2477
     18 C13         5.2354   -1.7904   -8.3344 C.2       1 <0>        -0.1444
     19 C14         5.6082   -0.6151   -8.8647 C.2       1 <0>         0.0457
     20 N3          5.0975    0.4178   -8.1174 N.pl3     1 <0>        -0.4208
     21 C15         4.3698   -0.0788   -7.0681 C.ar      1 <0>         0.3705
     22 N4          3.6799    0.4712   -6.0741 N.ar      1 <0>        -0.5728
     23 C16         5.2925    1.7800   -8.3881 C.ar      1 <0>         0.0310
     24 C17         4.7727    2.3501   -9.5408 C.ar      1 <0>         0.1472
     25 N5          4.9537    3.6304   -9.7992 N.ar      1 <0>        -0.4752
     26 C18         5.6290    4.4165   -8.9831 C.ar      1 <0>         0.1410
     27 C19         6.1782    3.9238   -7.8151 C.ar      1 <0>        -0.1978
     28 C20         6.0073    2.5830   -7.4994 C.ar      1 <0>         0.1644
     29 F1          6.5246    2.0677   -6.3628 F         1 <0>        -0.1129
     30 H1          3.5764   -3.9781   -2.9861 H         1 <0>         0.0623
     31 H2          4.4657   -3.0310   -1.7694 H         1 <0>         0.0532
     32 H3          4.1446   -4.7595   -1.4911 H         1 <0>         0.1023
     33 H4          3.3743   -1.9072   -3.1630 H         1 <0>         0.1492
     34 H5          0.1006    0.8285   -2.8857 H         1 <0>         0.1371
     35 H6          0.0041   -3.1092    1.9067 H         1 <0>         0.0914
     36 H7          1.5893   -2.5418    1.3295 H         1 <0>         0.0432
     37 H8          0.2242   -1.4051    1.4420 H         1 <0>         0.0429
     38 H9         -1.0538    1.5782   -1.3095 H         1 <0>         0.0567
     39 H10        -1.9500    0.6301   -2.5204 H         1 <0>         0.0580
     40 H11        -2.6629    0.9266   -0.9166 H         1 <0>         0.1036
     41 H12         2.2557    1.2853   -4.1479 H         1 <0>         0.4245
     42 H13         3.7756   -3.3241   -6.2332 H         1 <0>         0.1784
     43 H14         5.4869   -2.7726   -8.7063 H         1 <0>         0.1640
     44 H15         6.2193   -0.4989   -9.7476 H         1 <0>         0.1835
     45 H16         4.2140    1.7388  -10.2341 H         1 <0>         0.1723
     46 H17         5.7546    5.4600   -9.2317 H         1 <0>         0.1772
     47 H18         6.7301    4.5750   -7.1535 H         1 <0>         0.1588
@<TRIPOS>BOND
     1    1    2 1
     2    1   30 1
     3    1   31 1
     4    1   32 1
     5    2    3 1
     6    3    8 ar
     7    3    4 ar
     8    4    5 ar
     9    4   33 1
    10    5    6 ar
    11    5   13 1
    12    6    7 ar
    13    6   34 1
    14    7    8 ar
    15    7   11 1
    16    8    9 1
    17    9   10 1
    18   10   35 1
    19   10   36 1
    20   10   37 1
    21   11   12 1
    22   12   38 1
    23   12   39 1
    24   12   40 1
    25   13   14 1
    26   13   41 1
    27   14   22 ar
    28   14   15 ar
    29   15   16 ar
    30   16   17 ar
    31   16   42 1
    32   17   21 ar
    33   17   18 1
    34   18   19 2
    35   18   43 1
    36   19   20 1
    37   19   44 1
    38   20   21 1
    39   20   23 1
    40   21   22 ar
    41   23   28 ar
    42   23   24 ar
    43   24   25 ar
    44   24   45 1
    45   25   26 ar
    46   26   27 ar
    47   26   46 1
    48   27   28 ar
    49   27   47 1
    50   28   29 1
@<TRIPOS>MOLECULE
CHEMBL383006
   47    50     0     0     0
SMALL
USER_CHARGES

@<TRIPOS>ATOM
      1 C1          3.7489   -3.8383   -1.9189 C.3       1 <0>         0.0259
      2 O1          2.5164   -3.5060   -1.2767 O.3       1 <0>        -0.2993
      3 C2          1.8867   -2.3759   -1.6961 C.ar      1 <0>         0.1696
      4 C3          2.4416   -1.6081   -2.7079 C.ar      1 <0>        -0.2285
      5 C4          1.7989   -0.4544   -3.1363 C.ar      1 <0>         0.2453
      6 C5          0.5999   -0.0691   -2.5520 C.ar      1 <0>        -0.2648
      7 C6          0.0438   -0.8359   -1.5400 C.ar      1 <0>         0.1710
      8 C7          0.6839   -1.9937   -1.1143 C.ar      1 <0>         0.0094
      9 O2          0.1356   -2.7503   -0.1237 O.3       1 <0>        -0.3104
     10 C8          0.5105   -2.4328    1.2182 C.3       1 <0>         0.0343
     11 O3         -1.1302   -0.4578   -0.9671 O.3       1 <0>        -0.2994
     12 C9         -1.7351    0.7403   -1.4575 C.3       1 <0>         0.0243
     13 N1          2.3604    0.3211   -4.1577 N.pl3     1 <0>        -0.6361
     14 C10         3.0661   -0.2891   -5.1829 C.ar      1 <0>         0.5825
     15 N2          3.0964   -1.6156   -5.2373 N.ar      1 <0>        -0.5572
     16 C11         3.7550   -2.2450   -6.1954 C.ar      1 <0>         0.2429
     17 C12         4.4226   -1.4861   -7.1557 C.ar      1 <0>        -0.2481
     18 C13         5.2354   -1.7904   -8.3345 C.2       1 <0>        -0.1447
     19 C14         5.6083   -0.6152   -8.8648 C.2       1 <0>         0.0464
     20 N3          5.0976    0.4178   -8.1174 N.pl3     1 <0>        -0.4218
     21 C15         4.3698   -0.0788   -7.0681 C.ar      1 <0>         0.3754
     22 N4          3.6799    0.4712   -6.0741 N.ar      1 <0>        -0.5681
     23 C16         5.2922    1.7794   -8.3883 C.ar      1 <0>         0.0738
     24 C17         4.7715    2.3495   -9.5416 C.ar      1 <0>         0.1316
     25 N5          4.9522    3.6295   -9.8000 N.ar      1 <0>        -0.4654
     26 C18         5.6273    4.4152   -8.9836 C.ar      1 <0>         0.1250
     27 C19         6.1764    3.9218   -7.8154 C.ar      1 <0>        -0.1551
     28 C20         6.0064    2.5819   -7.5007 C.ar      1 <0>         0.0194
     29 Cl1         6.6721    1.9195   -6.0407 Cl        1 <0>        -0.0264
     30 H1          3.5763   -3.9781   -2.9861 H         1 <0>         0.0624
     31 H2          4.4657   -3.0310   -1.7694 H         1 <0>         0.0529
     32 H3          4.1446   -4.7595   -1.4911 H         1 <0>         0.1021
     33 H4          3.3743   -1.9072   -3.1630 H         1 <0>         0.1491
     34 H5          0.1006    0.8285   -2.8857 H         1 <0>         0.1369
     35 H6          0.0041   -3.1092    1.9067 H         1 <0>         0.0913
     36 H7          1.5893   -2.5418    1.3295 H         1 <0>         0.0431
     37 H8          0.2242   -1.4051    1.4420 H         1 <0>         0.0429
     38 H9         -1.9500    0.6301   -2.5204 H         1 <0>         0.0580
     39 H10        -2.6629    0.9266   -0.9166 H         1 <0>         0.1035
     40 H11        -1.0538    1.5782   -1.3095 H         1 <0>         0.0566
     41 H12         2.2557    1.2853   -4.1479 H         1 <0>         0.4243
     42 H13         3.7756   -3.3241   -6.2332 H         1 <0>         0.1771
     43 H14         5.4872   -2.7726   -8.7061 H         1 <0>         0.1630
     44 H15         6.2195   -0.4991   -9.7476 H         1 <0>         0.1822
     45 H16         4.2128    1.7380  -10.2347 H         1 <0>         0.1711
     46 H17         5.7530    5.4588   -9.2317 H         1 <0>         0.1758
     47 H18         6.7281    4.5728   -7.1534 H         1 <0>         0.1561
@<TRIPOS>BOND
     1    1    2 1
     2    1   30 1
     3    1   31 1
     4    1   32 1
     5    2    3 1
     6    3    8 ar
     7    3    4 ar
     8    4    5 ar
     9    4   33 1
    10    5    6 ar
    11    5   13 1
    12    6    7 ar
    13    6   34 1
    14    7    8 ar
    15    7   11 1
    16    8    9 1
    17    9   10 1
    18   10   35 1
    19   10   36 1
    20   10   37 1
    21   11   12 1
    22   12   38 1
    23   12   39 1
    24   12   40 1
    25   13   14 1
    26   13   41 1
    27   14   22 ar
    28   14   15 ar
    29   15   16 ar
    30   16   17 ar
    31   16   42 1
    32   17   21 ar
    33   17   18 1
    34   18   19 2
    35   18   43 1
    36   19   20 1
    37   19   44 1
    38   20   21 1
    39   20   23 1
    40   21   22 ar
    41   23   28 ar
    42   23   24 ar
    43   24   25 ar
    44   24   45 1
    45   25   26 ar
    46   26   27 ar
    47   26   46 1
    48   27   28 ar
    49   27   47 1
    50   28   29 1
@<TRIPOS>MOLECULE
CHEMBL206927
   60    63     0     0     0
SMALL
USER_CHARGES

@<TRIPOS>ATOM
      1 C1         -0.4160    0.7337    2.2416 C.3       1 <0>         0.0248
      2 O1         -0.2613   -0.4604    1.4720 O.3       1 <0>        -0.2990
      3 C2         -1.3337   -0.8676    0.7417 C.ar      1 <0>         0.1703
      4 C3         -2.5068   -0.1295    0.7619 C.ar      1 <0>        -0.2630
      5 C4         -3.6018   -0.5450    0.0164 C.ar      1 <0>         0.2477
      6 C5         -3.5229   -1.7002   -0.7495 C.ar      1 <0>        -0.2297
      7 C6         -2.3507   -2.4397   -0.7705 C.ar      1 <0>         0.1693
      8 C7         -1.2520   -2.0208   -0.0296 C.ar      1 <0>         0.0079
      9 O2         -0.0979   -2.7431   -0.0548 O.3       1 <0>        -0.3107
     10 C8          0.0415   -3.7774    0.9214 C.3       1 <0>         0.0343
     11 O3         -2.2738   -3.5715   -1.5204 O.3       1 <0>        -0.2996
     12 C9         -3.4390   -3.9390   -2.2616 C.3       1 <0>         0.0259
     13 N1         -4.7862    0.2011    0.0374 N.pl3     1 <0>        -0.6327
     14 C10        -6.0111   -0.4404   -0.0590 C.ar      1 <0>         0.5786
     15 N2         -6.0401   -1.7679   -0.0525 N.ar      1 <0>        -0.5571
     16 C11        -7.1830   -2.4264   -0.1416 C.ar      1 <0>         0.2414
     17 C12        -8.3670   -1.6973   -0.2432 C.ar      1 <0>        -0.2549
     18 C13        -9.7864   -2.0380   -0.3569 C.2       1 <0>        -0.1314
     19 C14       -10.4618   -0.8806   -0.4198 C.2       1 <0>         0.0353
     20 N3         -9.5855    0.1763   -0.3552 N.pl3     1 <0>        -0.4110
     21 C15        -8.2999   -0.2882   -0.2470 C.ar      1 <0>         0.3807
     22 N4         -7.1086    0.2922   -0.1485 N.ar      1 <0>        -0.5437
     23 C16        -9.9502    1.5234   -0.3944 C.ar      1 <0>         0.3505
     24 C17       -11.2959    1.8699   -0.5009 C.ar      1 <0>        -0.1617
     25 C18       -11.6496    3.2066   -0.5392 C.ar      1 <0>        -0.0498
     26 C19       -10.6447    4.1613   -0.4697 C.ar      1 <0>        -0.1241
     27 C20        -9.3205    3.7467   -0.3643 C.ar      1 <0>         0.1112
     28 N5         -9.0172    2.4543   -0.3248 N.ar      1 <0>        -0.4563
     29 C21        -8.2392    4.7568   -0.2893 C.2       1 <0>         0.5817
     30 O4         -8.5106    5.9408   -0.3200 O.2       1 <0>        -0.5221
     31 N6         -6.9545    4.3623   -0.1871 N.am      1 <0>        -0.7047
     32 C22        -5.8853    5.3611   -0.1130 C.3       1 <0>         0.1243
     33 C23        -4.5535    4.6642   -0.0047 C.2       1 <0>         0.4631
     34 O5         -4.5027    3.4571    0.0091 O.2       1 <0>        -0.5038
     35 O6         -3.4238    5.3845    0.0763 O.3       1 <0>        -0.3442
     36 C24        -2.1972    4.6582    0.1768 C.3       1 <0>         0.0323
     37 H1          0.5109    0.9450    2.7747 H         1 <0>         0.1033
     38 H2         -0.6513    1.5657    1.5779 H         1 <0>         0.0558
     39 H3         -1.2257    0.6011    2.9592 H         1 <0>         0.0563
     40 H4         -2.5691    0.7689    1.3581 H         1 <0>         0.1353
     41 H5         -4.3753   -2.0230   -1.3289 H         1 <0>         0.1489
     42 H6          1.0034   -4.2732    0.7906 H         1 <0>         0.0906
     43 H7         -0.0109   -3.3438    1.9201 H         1 <0>         0.0425
     44 H8         -0.7616   -4.5040    0.7982 H         1 <0>         0.0437
     45 H9         -4.2708   -4.0983   -1.5754 H         1 <0>         0.0611
     46 H10        -3.6919   -3.1414   -2.9601 H         1 <0>         0.0541
     47 H11        -3.2431   -4.8577   -2.8145 H         1 <0>         0.1017
     48 H12        -4.7496    1.1669    0.1193 H         1 <0>         0.4329
     49 H13        -7.1992   -3.5063   -0.1361 H         1 <0>         0.1771
     50 H14       -10.2089   -3.0316   -0.3854 H         1 <0>         0.1657
     51 H15       -11.5346   -0.7924   -0.5084 H         1 <0>         0.1859
     52 H16       -12.0544    1.1029   -0.5534 H         1 <0>         0.1498
     53 H17       -12.6855    3.5010   -0.6217 H         1 <0>         0.1566
     54 H18       -10.8875    5.2133   -0.4974 H         1 <0>         0.1580
     55 H19        -6.7378    3.4172   -0.1627 H         1 <0>         0.4272
     56 H20        -5.9008    5.9774   -1.0120 H         1 <0>         0.1188
     57 H21        -6.0375    5.9920    0.7627 H         1 <0>         0.1188
     58 H22        -2.2143    4.0384    1.0732 H         1 <0>         0.0625
     59 H23        -2.0776    4.0237   -0.7014 H         1 <0>         0.0654
     60 H24        -1.3640    5.3586    0.2352 H         1 <0>         0.1079
@<TRIPOS>BOND
     1    1    2 1
     2    1   37 1
     3    1   38 1
     4    1   39 1
     5    2    3 1
     6    3    8 ar
     7    3    4 ar
     8    4    5 ar
     9    4   40 1
    10    5    6 ar
    11    5   13 1
    12    6    7 ar
    13    6   41 1
    14    7    8 ar
    15    7   11 1
    16    8    9 1
    17    9   10 1
    18   10   42 1
    19   10   43 1
    20   10   44 1
    21   11   12 1
    22   12   45 1
    23   12   46 1
    24   12   47 1
    25   13   14 1
    26   13   48 1
    27   14   22 ar
    28   14   15 ar
    29   15   16 ar
    30   16   17 ar
    31   16   49 1
    32   17   21 ar
    33   17   18 1
    34   18   19 2
    35   18   50 1
    36   19   20 1
    37   19   51 1
    38   20   21 1
    39   20   23 1
    40   21   22 ar
    41   23   28 ar
    42   23   24 ar
    43   24   25 ar
    44   24   52 1
    45   25   26 ar
    46   25   53 1
    47   26   27 ar
    48   26   54 1
    49   27   28 ar
    50   27   29 1
    51   29   30 2
    52   29   31 am
    53   31   32 1
    54   31   55 1
    55   32   33 1
    56   32   56 1
    57   32   57 1
    58   33   34 2
    59   33   35 1
    60   35   36 1
    61   36   58 1
    62   36   59 1
    63   36   60 1
@<TRIPOS>MOLECULE
CHEMBL382354
   52    55     0     0     0
SMALL
USER_CHARGES

@<TRIPOS>ATOM
      1 C1         -0.1470   -3.9244    4.1298 C.3       1 <0>         0.0257
      2 O1         -0.0925   -3.5635    2.7482 O.3       1 <0>        -0.2992
      3 C2          0.5679   -2.4165    2.4353 C.ar      1 <0>         0.1697
      4 C3          1.1549   -1.6593    3.4370 C.ar      1 <0>        -0.2285
      5 C4          1.8291   -0.4884    3.1178 C.ar      1 <0>         0.2450
      6 C5          1.9162   -0.0752    1.7952 C.ar      1 <0>        -0.2647
      7 C6          1.3296   -0.8313    0.7925 C.ar      1 <0>         0.1709
      8 C7          0.6591   -2.0063    1.1107 C.ar      1 <0>         0.0095
      9 O2          0.0871   -2.7524    0.1255 O.3       1 <0>        -0.3104
     10 C8         -1.2674   -2.4491   -0.2144 C.3       1 <0>         0.0342
     11 O3          1.4143   -0.4259   -0.5029 O.3       1 <0>        -0.2994
     12 C9          2.1228    0.7887   -0.7575 C.3       1 <0>         0.0243
     13 N1          2.4210    0.2763    4.1301 N.pl3     1 <0>        -0.6361
     14 C10         2.9657   -0.3478    5.2414 C.ar      1 <0>         0.5812
     15 N2          3.0183   -1.6744    5.2684 N.ar      1 <0>        -0.5576
     16 C11         3.5284   -2.3167    6.3052 C.ar      1 <0>         0.2430
     17 C12         4.0142   -1.5715    7.3787 C.ar      1 <0>        -0.2499
     18 C13         4.6332   -1.8920    8.6659 C.2       1 <0>        -0.1496
     19 C14         4.8877   -0.7249    9.2776 C.2       1 <0>         0.0449
     20 N3          4.4799    0.3182    8.4822 N.pl3     1 <0>        -0.4200
     21 C15         3.9429   -0.1637    7.3172 C.ar      1 <0>         0.3674
     22 N4          3.4190    0.4000    6.2336 N.ar      1 <0>        -0.5715
     23 C16         4.5955    1.6747    8.8135 C.ar      1 <0>         0.1252
     24 C17         5.1545    2.5668    7.9079 C.ar      1 <0>        -0.0956
     25 C18         5.2671    3.9032    8.2373 C.ar      1 <0>        -0.0992
     26 C19         4.8239    4.3534    9.4676 C.ar      1 <0>        -0.0999
     27 C20         4.2673    3.4675   10.3715 C.ar      1 <0>        -0.0786
     28 C21         4.1463    2.1306   10.0454 C.ar      1 <0>        -0.1048
     29 C22         3.7861    3.9621   11.7112 C.3       1 <0>         0.0189
     30 C23         2.3732    4.3620   11.6080 C.1       1 <0>         0.2017
     31 N5          1.2828    4.6706   11.5283 N.1       1 <0>        -0.4226
     32 H1         -0.6472   -3.1358    4.6919 H         1 <0>         0.0531
     33 H2         -0.7009   -4.8567    4.2402 H         1 <0>         0.1022
     34 H3          0.8656   -4.0561    4.5112 H         1 <0>         0.0623
     35 H4          1.0876   -1.9801    4.4660 H         1 <0>         0.1491
     36 H5          2.4408    0.8358    1.5477 H         1 <0>         0.1371
     37 H6         -1.9012   -2.5856    0.6618 H         1 <0>         0.0432
     38 H7         -1.3341   -1.4154   -0.5536 H         1 <0>         0.0430
     39 H8         -1.6000   -3.1151   -1.0107 H         1 <0>         0.0913
     40 H9          1.6411    1.6087   -0.2249 H         1 <0>         0.0567
     41 H10         3.1524    0.6876   -0.4144 H         1 <0>         0.0579
     42 H11         2.1151    0.9962   -1.8276 H         1 <0>         0.1035
     43 H12         2.4498    1.2429    4.0538 H         1 <0>         0.4246
     44 H13         3.5675   -3.3959    6.3205 H         1 <0>         0.1769
     45 H14         4.8443   -2.8790    9.0502 H         1 <0>         0.1617
     46 H15         5.3448   -0.6211   10.2506 H         1 <0>         0.1825
     47 H16         5.5011    2.2159    6.9471 H         1 <0>         0.1295
     48 H17         5.7021    4.5974    7.5336 H         1 <0>         0.1359
     49 H18         4.9131    5.3989    9.7229 H         1 <0>         0.1348
     50 H19         3.7070    1.4400   10.7500 H         1 <0>         0.1343
     51 H20         3.8854    3.1663   12.4494 H         1 <0>         0.1218
     52 H21         4.3848    4.8195   12.0184 H         1 <0>         0.1245
@<TRIPOS>BOND
     1    1    2 1
     2    1   32 1
     3    1   33 1
     4    1   34 1
     5    2    3 1
     6    3    8 ar
     7    3    4 ar
     8    4    5 ar
     9    4   35 1
    10    5    6 ar
    11    5   13 1
    12    6    7 ar
    13    6   36 1
    14    7    8 ar
    15    7   11 1
    16    8    9 1
    17    9   10 1
    18   10   37 1
    19   10   38 1
    20   10   39 1
    21   11   12 1
    22   12   40 1
    23   12   41 1
    24   12   42 1
    25   13   14 1
    26   13   43 1
    27   14   22 ar
    28   14   15 ar
    29   15   16 ar
    30   16   17 ar
    31   16   44 1
    32   17   21 ar
    33   17   18 1
    34   18   19 2
    35   18   45 1
    36   19   20 1
    37   19   46 1
    38   20   21 1
    39   20   23 1
    40   21   22 ar
    41   23   28 ar
    42   23   24 ar
    43   24   25 ar
    44   24   47 1
    45   25   26 ar
    46   25   48 1
    47   26   27 ar
    48   26   49 1
    49   27   28 ar
    50   27   29 1
    51   28   50 1
    52   29   30 1
    53   29   51 1
    54   29   52 1
    55   30   31 3
@<TRIPOS>MOLECULE
CHEMBL208734
   52    55     0     0     0
SMALL
USER_CHARGES

@<TRIPOS>ATOM
      1 C1         -0.1470   -3.9244    4.1298 C.3       1 <0>         0.0260
      2 O1         -0.0925   -3.5635    2.7482 O.3       1 <0>        -0.2993
      3 C2          0.5679   -2.4165    2.4353 C.ar      1 <0>         0.1694
      4 C3          1.1549   -1.6593    3.4370 C.ar      1 <0>        -0.2286
      5 C4          1.8291   -0.4884    3.1178 C.ar      1 <0>         0.2453
      6 C5          1.9162   -0.0752    1.7952 C.ar      1 <0>        -0.2649
      7 C6          1.3296   -0.8313    0.7925 C.ar      1 <0>         0.1711
      8 C7          0.6591   -2.0063    1.1107 C.ar      1 <0>         0.0094
      9 O2          0.0871   -2.7524    0.1255 O.3       1 <0>        -0.3104
     10 C8         -1.2674   -2.4491   -0.2144 C.3       1 <0>         0.0343
     11 O3          1.4143   -0.4259   -0.5029 O.3       1 <0>        -0.2994
     12 C9          2.1228    0.7887   -0.7575 C.3       1 <0>         0.0242
     13 N1          2.4210    0.2763    4.1301 N.pl3     1 <0>        -0.6363
     14 C10         2.9657   -0.3478    5.2414 C.ar      1 <0>         0.5798
     15 N2          3.0183   -1.6744    5.2684 N.ar      1 <0>        -0.5580
     16 C11         3.5284   -2.3167    6.3052 C.ar      1 <0>         0.2426
     17 C12         4.0142   -1.5715    7.3787 C.ar      1 <0>        -0.2498
     18 C13         4.6332   -1.8920    8.6659 C.2       1 <0>        -0.1531
     19 C14         4.8877   -0.7249    9.2776 C.2       1 <0>         0.0493
     20 N3          4.4799    0.3182    8.4822 N.pl3     1 <0>        -0.4217
     21 C15         3.9429   -0.1637    7.3172 C.ar      1 <0>         0.3662
     22 N4          3.4190    0.4000    6.2336 N.ar      1 <0>        -0.5713
     23 C16         4.5955    1.6747    8.8135 C.ar      1 <0>         0.1159
     24 C17         5.8506    2.2532    8.9495 C.ar      1 <0>        -0.1071
     25 C18         5.9613    3.5904    9.2761 C.ar      1 <0>        -0.1088
     26 C19         4.8238    4.3533    9.4676 C.ar      1 <0>        -0.1081
     27 C20         3.5728    3.7802    9.3334 C.ar      1 <0>        -0.0869
     28 C21         3.4555    2.4446    9.0008 C.ar      1 <0>        -0.0695
     29 C22         2.0915    1.8223    8.8480 C.3       1 <0>         0.1146
     30 O4          1.0875    2.8102    9.0887 O.3       1 <0>        -0.5660
     31 H1         -0.6472   -3.1358    4.6919 H         1 <0>         0.0528
     32 H2         -0.7009   -4.8567    4.2402 H         1 <0>         0.1020
     33 H3          0.8656   -4.0561    4.5112 H         1 <0>         0.0622
     34 H4          1.0876   -1.9801    4.4660 H         1 <0>         0.1490
     35 H5          2.4408    0.8358    1.5477 H         1 <0>         0.1371
     36 H6         -1.3341   -1.4154   -0.5536 H         1 <0>         0.0430
     37 H7         -1.6000   -3.1151   -1.0107 H         1 <0>         0.0913
     38 H8         -1.9012   -2.5856    0.6618 H         1 <0>         0.0431
     39 H9          2.1151    0.9962   -1.8276 H         1 <0>         0.1035
     40 H10         1.6411    1.6087   -0.2249 H         1 <0>         0.0568
     41 H11         3.1524    0.6876   -0.4144 H         1 <0>         0.0580
     42 H12         2.4498    1.2429    4.0538 H         1 <0>         0.4247
     43 H13         3.5675   -3.3959    6.3205 H         1 <0>         0.1765
     44 H14         4.8443   -2.8790    9.0502 H         1 <0>         0.1612
     45 H15         5.3448   -0.6211   10.2506 H         1 <0>         0.1809
     46 H16         6.7393    1.6578    8.8004 H         1 <0>         0.1311
     47 H17         6.9372    4.0407    9.3824 H         1 <0>         0.1336
     48 H18         4.9130    5.3989    9.7230 H         1 <0>         0.1319
     49 H19         2.6864    4.3785    9.4839 H         1 <0>         0.1415
     50 H20         1.9817    1.4315    7.8364 H         1 <0>         0.0695
     51 H21         1.9807    1.0093    9.5656 H         1 <0>         0.0556
     52 H22         0.1826    2.4793    9.0073 H         1 <0>         0.3859
@<TRIPOS>BOND
     1    1    2 1
     2    1   31 1
     3    1   32 1
     4    1   33 1
     5    2    3 1
     6    3    8 ar
     7    3    4 ar
     8    4    5 ar
     9    4   34 1
    10    5    6 ar
    11    5   13 1
    12    6    7 ar
    13    6   35 1
    14    7    8 ar
    15    7   11 1
    16    8    9 1
    17    9   10 1
    18   10   36 1
    19   10   37 1
    20   10   38 1
    21   11   12 1
    22   12   39 1
    23   12   40 1
    24   12   41 1
    25   13   14 1
    26   13   42 1
    27   14   22 ar
    28   14   15 ar
    29   15   16 ar
    30   16   17 ar
    31   16   43 1
    32   17   21 ar
    33   17   18 1
    34   18   19 2
    35   18   44 1
    36   19   20 1
    37   19   45 1
    38   20   21 1
    39   20   23 1
    40   21   22 ar
    41   23   28 ar
    42   23   24 ar
    43   24   25 ar
    44   24   46 1
    45   25   26 ar
    46   25   47 1
    47   26   27 ar
    48   26   48 1
    49   27   28 ar
    50   27   49 1
    51   28   29 1
    52   29   30 1
    53   29   50 1
    54   29   51 1
    55   30   52 1
@<TRIPOS>MOLECULE
CHEMBL470317
   42    45     0     0     0
SMALL
USER_CHARGES

@<TRIPOS>ATOM
      1 C1          1.2262    1.4892    0.1638 C.ar      1 <0>        -0.0752
      2 C2          2.5170    1.9827    0.0488 C.ar      1 <0>        -0.1613
      3 C3          3.5687    1.0951   -0.0755 C.ar      1 <0>         0.1008
      4 N1          3.3555   -0.2063   -0.0859 N.ar      1 <0>        -0.4682
      5 C4          2.1420   -0.7110    0.0212 C.ar      1 <0>         0.0957
      6 C5          1.0414    0.1153    0.1493 C.ar      1 <0>        -0.1509
      7 C6          1.9529   -2.2060    0.0032 C.3       1 <0>         0.1806
      8 N2          1.8758   -2.6718   -1.3836 N.pl3     1 <0>        -0.6896
      9 C7          1.7026   -4.0144   -1.6519 C.ar      1 <0>         0.5236
     10 C8          1.6324   -4.4779   -2.9840 C.ar      1 <0>        -0.2525
     11 C9          1.4566   -5.8489   -3.1973 C.ar      1 <0>         0.2764
     12 N3          1.3633   -6.6542   -2.1544 N.ar      1 <0>        -0.5874
     13 C10         1.4336   -6.1834   -0.9159 C.ar      1 <0>         0.6204
     14 N4          1.6045   -4.8939   -0.6625 N.ar      1 <0>        -0.6129
     15 N5          1.3301   -7.0653    0.1423 N.pl3     1 <0>        -0.6242
     16 C11         1.2717   -8.4431   -0.0981 C.ar      1 <0>         0.1416
     17 C12         1.9685   -8.9957   -1.1652 C.ar      1 <0>        -0.0730
     18 C13         1.9129  -10.3522   -1.4045 C.ar      1 <0>        -0.1154
     19 C14         1.1569  -11.1804   -0.5767 C.ar      1 <0>         0.1272
     20 C15         0.4638  -10.6190    0.4882 C.ar      1 <0>        -0.1224
     21 C16         0.5207   -9.2659    0.7332 C.ar      1 <0>        -0.0903
     22 C17        -0.2464  -11.7587    1.1820 C.3       1 <0>        -0.1142
     23 C18         0.1413  -12.9800    0.3761 C.2       1 <0>         0.5278
     24 O1         -0.2101  -14.1221    0.5848 O.2       1 <0>        -0.5037
     25 N6          0.9473  -12.5615   -0.6141 N.am      1 <0>        -0.6596
     26 C19         1.7379   -3.5694   -4.0858 C.1       1 <0>         0.2652
     27 N7          1.8216   -2.8486   -4.9598 N.1       1 <0>        -0.4204
     28 H1          0.3853    2.1590    0.2666 H         1 <0>         0.1393
     29 H2          2.6979    3.0474    0.0560 H         1 <0>         0.1396
     30 H3          4.5770    1.4715   -0.1655 H         1 <0>         0.1607
     31 H4          0.0500   -0.3041    0.2370 H         1 <0>         0.1386
     32 H5          2.7961   -2.6849    0.5010 H         1 <0>         0.0934
     33 H6          1.0303   -2.4618    0.5243 H         1 <0>         0.0915
     34 H7          1.9464   -2.0366   -2.1132 H         1 <0>         0.4155
     35 H8          1.3976   -6.2437   -4.2009 H         1 <0>         0.1806
     36 H9          1.2980   -6.7299    1.0519 H         1 <0>         0.4269
     37 H10         2.5563   -8.3596   -1.8106 H         1 <0>         0.1463
     38 H11         2.4568  -10.7747   -2.2365 H         1 <0>         0.1317
     39 H12        -0.0200   -8.8437    1.5674 H         1 <0>         0.1339
     40 H13         0.1001  -11.8544    2.2110 H         1 <0>         0.1250
     41 H14        -1.3258  -11.6095    1.1539 H         1 <0>         0.1250
     42 H15         1.3383  -13.1501   -1.2786 H         1 <0>         0.4142
@<TRIPOS>BOND
     1    1    6 ar
     2    1    2 ar
     3    1   28 1
     4    2    3 ar
     5    2   29 1
     6    3    4 ar
     7    3   30 1
     8    4    5 ar
     9    5    6 ar
    10    5    7 1
    11    6   31 1
    12    7    8 1
    13    7   32 1
    14    7   33 1
    15    8    9 1
    16    8   34 1
    17    9   14 ar
    18    9   10 ar
    19   10   11 ar
    20   10   26 1
    21   11   12 ar
    22   11   35 1
    23   12   13 ar
    24   13   14 ar
    25   13   15 1
    26   15   16 1
    27   15   36 1
    28   16   21 ar
    29   16   17 ar
    30   17   18 ar
    31   17   37 1
    32   18   19 ar
    33   18   38 1
    34   19   25 1
    35   19   20 ar
    36   20   21 ar
    37   20   22 1
    38   21   39 1
    39   22   23 1
    40   22   40 1
    41   22   41 1
    42   23   24 2
    43   23   25 am
    44   25   42 1
    45   26   27 3
@<TRIPOS>MOLECULE
CHEMBL470316
   41    44     0     0     0
SMALL
USER_CHARGES

@<TRIPOS>ATOM
      1 C1          0.1848    1.4041   -0.2410 C.ar      1 <0>        -0.0752
      2 C2          1.3956    2.0580   -0.0698 C.ar      1 <0>        -0.1623
      3 C3          2.5464    1.3114    0.0972 C.ar      1 <0>         0.1006
      4 N1          2.5017   -0.0066    0.0945 N.ar      1 <0>        -0.4680
      5 C4          1.3687   -0.6617   -0.0656 C.ar      1 <0>         0.0987
      6 C5          0.1774    0.0178   -0.2377 C.ar      1 <0>        -0.1511
      7 C6          1.3726   -2.1687   -0.0613 C.3       1 <0>         0.1817
      8 N2          1.6874   -2.6600   -1.4050 N.pl3     1 <0>        -0.6930
      9 C7          1.7485   -4.0229   -1.6477 C.ar      1 <0>         0.5076
     10 C8          2.0536   -4.5029   -2.9243 C.ar      1 <0>        -0.3146
     11 C9          2.1033   -5.8696   -3.1197 C.ar      1 <0>         0.2522
     12 N3          1.8621   -6.6795   -2.0989 N.ar      1 <0>        -0.5842
     13 C10         1.5754   -6.1965   -0.8993 C.ar      1 <0>         0.6088
     14 N4          1.5231   -4.8929   -0.6689 N.ar      1 <0>        -0.6077
     15 N5          1.3290   -7.0766    0.1418 N.pl3     1 <0>        -0.6293
     16 C11         1.2705   -8.4534   -0.1046 C.ar      1 <0>         0.1456
     17 C12         1.7058   -9.3541    0.8592 C.ar      1 <0>        -0.1100
     18 C13         1.6494  -10.7106    0.6195 C.ar      1 <0>        -0.1143
     19 C14         1.1554  -11.1890   -0.5928 C.ar      1 <0>         0.1241
     20 C15         0.7224  -10.2809   -1.5506 C.ar      1 <0>        -0.1208
     21 C16         0.7713   -8.9262   -1.3126 C.ar      1 <0>        -0.0585
     22 C17         0.2527  -11.0991   -2.7315 C.3       1 <0>        -0.1141
     23 C18         0.4812  -12.5324   -2.3013 C.2       1 <0>         0.5283
     24 O1          0.2409  -13.5270   -2.9527 O.2       1 <0>        -0.5043
     25 N6          1.0010  -12.4960   -1.0628 N.am      1 <0>        -0.6597
     26 Br1         2.3901   -3.3089   -4.3516 Br        1 <0>        -0.0291
     27 H1         -0.7312    1.9616   -0.3694 H         1 <0>         0.1390
     28 H2          1.4387    3.1371   -0.0674 H         1 <0>         0.1393
     29 H3          3.4933    1.8131    0.2311 H         1 <0>         0.1604
     30 H4         -0.7476   -0.5244   -0.3680 H         1 <0>         0.1381
     31 H5          2.1236   -2.5281    0.6422 H         1 <0>         0.0898
     32 H6          0.3901   -2.5338    0.2381 H         1 <0>         0.0880
     33 H7          1.8532   -2.0313   -2.1248 H         1 <0>         0.4170
     34 H8          2.3359   -6.2736   -4.0939 H         1 <0>         0.1771
     35 H9          1.1971   -6.7388    1.0414 H         1 <0>         0.4260
     36 H10         2.0904   -8.9900    1.8004 H         1 <0>         0.1349
     37 H11         1.9897  -11.4049    1.3735 H         1 <0>         0.1319
     38 H12         0.4266   -8.2318   -2.0646 H         1 <0>         0.1435
     39 H13        -0.8057  -10.9218   -2.9221 H         1 <0>         0.1239
     40 H14         0.8451  -10.8671   -3.6165 H         1 <0>         0.1260
     41 H15         1.2411  -13.2859   -0.5536 H         1 <0>         0.4134
@<TRIPOS>BOND
     1    1    6 ar
     2    1    2 ar
     3    1   27 1
     4    2    3 ar
     5    2   28 1
     6    3    4 ar
     7    3   29 1
     8    4    5 ar
     9    5    6 ar
    10    5    7 1
    11    6   30 1
    12    7    8 1
    13    7   31 1
    14    7   32 1
    15    8    9 1
    16    8   33 1
    17    9   14 ar
    18    9   10 ar
    19   10   11 ar
    20   10   26 1
    21   11   12 ar
    22   11   34 1
    23   12   13 ar
    24   13   14 ar
    25   13   15 1
    26   15   16 1
    27   15   35 1
    28   16   21 ar
    29   16   17 ar
    30   17   18 ar
    31   17   36 1
    32   18   19 ar
    33   18   37 1
    34   19   25 1
    35   19   20 ar
    36   20   21 ar
    37   20   22 1
    38   21   38 1
    39   22   23 1
    40   22   39 1
    41   22   40 1
    42   23   24 2
    43   23   25 am
    44   25   41 1
@<TRIPOS>MOLECULE
CHEMBL513744
   56    59     0     0     0
SMALL
USER_CHARGES

@<TRIPOS>ATOM
      1 C1         -0.5160    1.4984   -0.1437 C.3       1 <0>         0.0676
      2 N1         -0.2970    0.0504   -0.1044 N.pl3     1 <0>        -0.9427
      3 C2         -0.1110   -0.5947    1.1204 C.ar      1 <0>         0.1717
      4 C3          0.5922   -1.7916    1.1771 C.ar      1 <0>        -0.1475
      5 C4          0.7747   -2.4265    2.3896 C.ar      1 <0>        -0.0806
      6 C5          0.2579   -1.8726    3.5467 C.ar      1 <0>        -0.1193
      7 C6         -0.4428   -0.6819    3.4938 C.ar      1 <0>        -0.0876
      8 C7         -0.6237   -0.0383    2.2851 C.ar      1 <0>        -0.1277
      9 C8         -1.0050   -0.0826    4.7571 C.3       1 <0>         0.1698
     10 N2         -0.0119    0.8117    5.3573 N.pl3     1 <0>        -0.6952
     11 C9         -0.3045    1.4817    6.5340 C.ar      1 <0>         0.5248
     12 C10         0.6327    2.3413    7.1120 C.ar      1 <0>        -0.4113
     13 C11         0.2978    2.9880    8.2853 C.ar      1 <0>         0.2731
     14 N3         -0.8938    2.7763    8.8249 N.ar      1 <0>        -0.5871
     15 C12        -1.7634    1.9554    8.2549 C.ar      1 <0>         0.6199
     16 N4         -1.4830    1.3202    7.1265 N.ar      1 <0>        -0.6115
     17 N5         -2.9984    1.7604    8.8505 N.pl3     1 <0>        -0.6252
     18 C13        -3.2725    2.3345   10.0976 C.ar      1 <0>         0.1406
     19 C14        -4.5594    2.7591   10.4028 C.ar      1 <0>        -0.1073
     20 C15        -4.8325    3.3248   11.6301 C.ar      1 <0>        -0.1149
     21 C16        -3.8187    3.4750   12.5746 C.ar      1 <0>         0.1272
     22 C17        -2.5350    3.0470   12.2607 C.ar      1 <0>        -0.1212
     23 C18        -2.2596    2.4770   11.0386 C.ar      1 <0>        -0.0569
     24 C19        -1.6796    3.3430   13.4712 C.3       1 <0>        -0.1143
     25 C20        -2.6410    3.9711   14.4575 C.2       1 <0>         0.5283
     26 O1         -2.3734    4.3653   15.5730 O.2       1 <0>        -0.5031
     27 N6         -3.8465    4.0099   13.8654 N.am      1 <0>        -0.6599
     28 C21         1.9789    2.5575    6.4701 C.3       1 <0>         0.5287
     29 F1          2.7241    3.4563    7.2409 F         1 <0>        -0.1728
     30 F2          2.6585    1.3373    6.3894 F         1 <0>        -0.1782
     31 F3          1.8038    3.0797    5.1841 F         1 <0>        -0.1788
     32 S1         -0.2699   -0.8214   -1.5120 S.o2      1 <0>         2.6011
     33 O2         -0.6572   -2.1349   -1.1325 O.2       1 <0>        -0.9377
     34 O3         -1.0602   -0.0673   -2.4209 O.2       1 <0>        -0.9429
     35 C22         1.4670   -0.8087   -2.0349 C.3       1 <0>        -0.6721
     36 H1          0.4434    2.0089   -0.2277 H         1 <0>         0.0679
     37 H2         -1.1373    1.7487   -1.0037 H         1 <0>         0.0956
     38 H3         -1.0172    1.8151    0.7710 H         1 <0>         0.0860
     39 H4          0.9954   -2.2250    0.2738 H         1 <0>         0.1274
     40 H5          1.3213   -3.3569    2.4344 H         1 <0>         0.1346
     41 H6          0.4018   -2.3715    4.4938 H         1 <0>         0.1292
     42 H7         -1.1670    0.8942    2.2451 H         1 <0>         0.1327
     43 H8         -1.9070    0.4821    4.5213 H         1 <0>         0.0834
     44 H9         -1.2484   -0.8792    5.4601 H         1 <0>         0.0859
     45 H10         0.8506    0.9348    4.9307 H         1 <0>         0.4149
     46 H11         0.9996    3.6590    8.7582 H         1 <0>         0.1821
     47 H12        -3.6735    1.2262    8.4036 H         1 <0>         0.4275
     48 H13        -5.3495    2.6460    9.6752 H         1 <0>         0.1355
     49 H14        -5.8353    3.6530   11.8602 H         1 <0>         0.1327
     50 H15        -1.2577    2.1450   10.8098 H         1 <0>         0.1438
     51 H16        -1.2625    2.4220   13.8784 H         1 <0>         0.1245
     52 H17        -0.8843    4.0429   13.2148 H         1 <0>         0.1265
     53 H18        -4.6442    4.3680   14.2854 H         1 <0>         0.4138
     54 H19         2.0823   -1.2705   -1.2628 H         1 <0>         0.1311
     55 H20         1.5707   -1.3679   -2.9648 H         1 <0>         0.1356
     56 H21         1.7918    0.2200   -2.1915 H         1 <0>         0.1321
@<TRIPOS>BOND
     1    1    2 1
     2    1   36 1
     3    1   37 1
     4    1   38 1
     5    2    3 1
     6    2   32 1
     7    3    8 ar
     8    3    4 ar
     9    4    5 ar
    10    4   39 1
    11    5    6 ar
    12    5   40 1
    13    6    7 ar
    14    6   41 1
    15    7    8 ar
    16    7    9 1
    17    8   42 1
    18    9   10 1
    19    9   43 1
    20    9   44 1
    21   10   11 1
    22   10   45 1
    23   11   16 ar
    24   11   12 ar
    25   12   13 ar
    26   12   28 1
    27   13   14 ar
    28   13   46 1
    29   14   15 ar
    30   15   16 ar
    31   15   17 1
    32   17   18 1
    33   17   47 1
    34   18   23 ar
    35   18   19 ar
    36   19   20 ar
    37   19   48 1
    38   20   21 ar
    39   20   49 1
    40   21   27 1
    41   21   22 ar
    42   22   23 ar
    43   22   24 1
    44   23   50 1
    45   24   25 1
    46   24   51 1
    47   24   52 1
    48   25   26 2
    49   25   27 am
    50   27   53 1
    51   28   29 1
    52   28   30 1
    53   28   31 1
    54   32   33 2
    55   32   34 2
    56   32   35 1
    57   35   54 1
    58   35   55 1
    59   35   56 1
@<TRIPOS>MOLECULE
CHEMBL208370
   60    63     0     0     0
SMALL
USER_CHARGES

@<TRIPOS>ATOM
      1 C1         -3.4367   -3.9357   -2.2663 C.3       1 <0>         0.0250
      2 O1         -2.2735   -3.5713   -1.5204 O.3       1 <0>        -0.2965
      3 C2         -2.3506   -2.4396   -0.7702 C.ar      1 <0>         0.1739
      4 C3         -3.5229   -1.7004   -0.7491 C.ar      1 <0>        -0.2264
      5 C4         -3.6018   -0.5450    0.0166 C.ar      1 <0>         0.2388
      6 C5         -2.5065   -0.1289    0.7614 C.ar      1 <0>        -0.2706
      7 C6         -1.3333   -0.8668    0.7410 C.ar      1 <0>         0.1693
      8 C7         -1.2558   -2.0270   -0.0201 C.ar      1 <0>         0.0147
      9 O2         -0.1057   -2.7561   -0.0356 O.3       1 <0>        -0.3096
     10 C8          0.8621   -2.4199   -1.0317 C.3       1 <0>         0.0349
     11 O3         -0.2604   -0.4588    1.4702 O.3       1 <0>        -0.2964
     12 C9         -0.4130    0.7392    2.2341 C.3       1 <0>         0.0276
     13 N1         -4.7862    0.2011    0.0374 N.pl3     1 <0>        -0.6368
     14 C10        -6.0111   -0.4404   -0.0590 C.ar      1 <0>         0.5730
     15 N2         -6.0401   -1.7679   -0.0525 N.ar      1 <0>        -0.5547
     16 C11        -7.1830   -2.4264   -0.1416 C.ar      1 <0>         0.2470
     17 C12        -8.3670   -1.6973   -0.2432 C.ar      1 <0>        -0.2464
     18 C13        -9.7864   -2.0380   -0.3569 C.2       1 <0>        -0.1276
     19 C14       -10.4618   -0.8806   -0.4198 C.2       1 <0>         0.0372
     20 N3         -9.5855    0.1763   -0.3552 N.pl3     1 <0>        -0.4101
     21 C15        -8.2999   -0.2882   -0.2470 C.ar      1 <0>         0.3786
     22 N4         -7.1086    0.2922   -0.1485 N.ar      1 <0>        -0.5515
     23 C16        -9.9502    1.5234   -0.3944 C.ar      1 <0>         0.3531
     24 C17       -11.2959    1.8699   -0.5009 C.ar      1 <0>        -0.1538
     25 C18       -11.6496    3.2066   -0.5392 C.ar      1 <0>        -0.0464
     26 C19       -10.6447    4.1613   -0.4697 C.ar      1 <0>        -0.1201
     27 C20        -9.3205    3.7467   -0.3643 C.ar      1 <0>         0.0981
     28 N5         -9.0172    2.4543   -0.3248 N.ar      1 <0>        -0.4608
     29 C21        -8.2392    4.7568   -0.2893 C.2       1 <0>         0.5893
     30 O4         -8.5106    5.9408   -0.3200 O.2       1 <0>        -0.5120
     31 N6         -6.9545    4.3623   -0.1871 N.am      1 <0>        -0.7174
     32 C22        -5.8853    5.3611   -0.1130 C.3       1 <0>         0.0913
     33 C23        -4.5332    4.6535   -0.0031 C.3       1 <0>        -0.0242
     34 N7         -3.4611    5.6550    0.0712 N.4       1 <0>        -0.6311
     35 H1         -3.2408   -4.8546   -2.8188 H         1 <0>         0.1058
     36 H2         -4.2715   -4.0932   -1.5834 H         1 <0>         0.0636
     37 H3         -3.6849   -3.1372   -2.9654 H         1 <0>         0.0536
     38 H4         -4.3751   -2.0231   -1.3288 H         1 <0>         0.1502
     39 H5         -2.5685    0.7702    1.3565 H         1 <0>         0.1309
     40 H6          1.7277   -3.0750   -0.9330 H         1 <0>         0.0948
     41 H7          0.4231   -2.5445   -2.0215 H         1 <0>         0.0445
     42 H8          1.1739   -1.3837   -0.9003 H         1 <0>         0.0421
     43 H9         -1.2235    0.6119    2.9517 H         1 <0>         0.0574
     44 H10         0.5141    0.9509    2.7670 H         1 <0>         0.1046
     45 H11        -0.6458    1.5687    1.5664 H         1 <0>         0.0483
     46 H12        -4.7496    1.1669    0.1192 H         1 <0>         0.4125
     47 H13        -7.1992   -3.5063   -0.1361 H         1 <0>         0.1809
     48 H14       -10.2089   -3.0316   -0.3854 H         1 <0>         0.1698
     49 H15       -11.5346   -0.7924   -0.5084 H         1 <0>         0.1893
     50 H16       -12.0544    1.1029   -0.5534 H         1 <0>         0.1536
     51 H17       -12.6855    3.5010   -0.6217 H         1 <0>         0.1603
     52 H18       -10.8875    5.2133   -0.4974 H         1 <0>         0.1580
     53 H19        -6.7378    3.4172   -0.1627 H         1 <0>         0.4229
     54 H20        -5.9008    5.9774   -1.0120 H         1 <0>         0.0940
     55 H21        -6.0375    5.9920    0.7627 H         1 <0>         0.0940
     56 H22        -4.5177    4.0373    0.8959 H         1 <0>         0.1421
     57 H23        -4.3810    4.0226   -0.8788 H         1 <0>         0.1430
     58 H24        -2.5694    5.1884    0.1438 H         1 <0>         0.4442
     59 H25        -3.4755    6.2255   -0.7609 H         1 <0>         0.4401
     60 H26        -3.6020    6.2391    0.8819 H         1 <0>         0.4398
@<TRIPOS>BOND
     1    1    2 1
     2    1   35 1
     3    1   36 1
     4    1   37 1
     5    2    3 1
     6    3    8 ar
     7    3    4 ar
     8    4    5 ar
     9    4   38 1
    10    5    6 ar
    11    5   13 1
    12    6    7 ar
    13    6   39 1
    14    7    8 ar
    15    7   11 1
    16    8    9 1
    17    9   10 1
    18   10   40 1
    19   10   41 1
    20   10   42 1
    21   11   12 1
    22   12   43 1
    23   12   44 1
    24   12   45 1
    25   13   14 1
    26   13   46 1
    27   14   22 ar
    28   14   15 ar
    29   15   16 ar
    30   16   17 ar
    31   16   47 1
    32   17   21 ar
    33   17   18 1
    34   18   19 2
    35   18   48 1
    36   19   20 1
    37   19   49 1
    38   20   21 1
    39   20   23 1
    40   21   22 ar
    41   23   28 ar
    42   23   24 ar
    43   24   25 ar
    44   24   50 1
    45   25   26 ar
    46   25   51 1
    47   26   27 ar
    48   26   52 1
    49   27   28 ar
    50   27   29 1
    51   29   30 2
    52   29   31 am
    53   31   32 1
    54   31   53 1
    55   32   33 1
    56   32   54 1
    57   32   55 1
    58   33   34 1
    59   33   56 1
    60   33   57 1
    61   34   58 1
    62   34   59 1
    63   34   60 1
@<TRIPOS>MOLECULE
CHEMBL208468
   59    63     0     0     0
SMALL
USER_CHARGES

@<TRIPOS>ATOM
      1 C1         -3.4372   -3.9339   -2.2691 C.3       1 <0>         0.0256
      2 O1         -2.2736   -3.5696   -1.5240 O.3       1 <0>        -0.2993
      3 C2         -2.3505   -2.4385   -0.7729 C.ar      1 <0>         0.1698
      4 C3         -3.5231   -1.6998   -0.7503 C.ar      1 <0>        -0.2284
      5 C4         -3.6018   -0.5450    0.0165 C.ar      1 <0>         0.2450
      6 C5         -2.5063   -0.1295    0.7614 C.ar      1 <0>        -0.2648
      7 C6         -1.3330   -0.8671    0.7397 C.ar      1 <0>         0.1708
      8 C7         -1.2552   -2.0260   -0.0234 C.ar      1 <0>         0.0094
      9 O2         -0.1047   -2.7543   -0.0408 O.3       1 <0>        -0.3104
     10 C8          0.8620   -2.4164   -1.0375 C.3       1 <0>         0.0343
     11 O3         -0.2598   -0.4595    1.4687 O.3       1 <0>        -0.2994
     12 C9         -0.4122    0.7379    2.2336 C.3       1 <0>         0.0243
     13 N1         -4.7862    0.2011    0.0381 N.pl3     1 <0>        -0.6360
     14 C10        -6.0112   -0.4404   -0.0583 C.ar      1 <0>         0.5812
     15 N2         -6.0401   -1.7680   -0.0528 N.ar      1 <0>        -0.5575
     16 C11        -7.1829   -2.4266   -0.1424 C.ar      1 <0>         0.2438
     17 C12        -8.3670   -1.6975   -0.2436 C.ar      1 <0>        -0.2482
     18 C13        -9.7861   -2.0379   -0.3581 C.2       1 <0>        -0.1480
     19 C14       -10.4611   -0.8797   -0.4204 C.2       1 <0>         0.0458
     20 N3         -9.5848    0.1761   -0.3547 N.pl3     1 <0>        -0.4201
     21 C15        -8.3000   -0.2881   -0.2464 C.ar      1 <0>         0.3672
     22 N4         -7.1086    0.2923   -0.1470 N.ar      1 <0>        -0.5719
     23 C16        -9.9506    1.5283   -0.3932 C.ar      1 <0>         0.1191
     24 C17        -9.4586    2.4087    0.5629 C.ar      1 <0>        -0.0756
     25 C18        -9.8163    3.7433    0.5294 C.ar      1 <0>        -0.1064
     26 C19       -10.6642    4.2108   -0.4542 C.ar      1 <0>        -0.0823
     27 C20       -11.1634    3.3346   -1.4193 C.ar      1 <0>        -0.1194
     28 C21       -10.7983    1.9886   -1.3881 C.ar      1 <0>        -0.0578
     29 C22       -12.0723    3.8324   -2.4740 C.2       1 <0>         0.5653
     30 O4        -12.5058    3.0676   -3.3135 O.2       1 <0>        -0.5281
     31 N5        -12.4201    5.1342   -2.5046 N.am      1 <0>        -0.6970
     32 C23       -13.3207    5.6274   -3.5495 C.3       1 <0>         0.0759
     33 C24       -12.9625    6.9539   -4.2225 C.3       1 <0>        -0.1912
     34 C25       -14.1362    6.8852   -3.2434 C.3       1 <0>        -0.1867
     35 H1         -3.2415   -4.8523   -2.8225 H         1 <0>         0.1022
     36 H2         -4.2715   -4.0922   -1.5857 H         1 <0>         0.0624
     37 H3         -3.6863   -3.1349   -2.9675 H         1 <0>         0.0533
     38 H4         -4.3756   -2.0224   -1.3295 H         1 <0>         0.1493
     39 H5         -2.5683    0.7689    1.3575 H         1 <0>         0.1370
     40 H6          1.7280   -3.0711   -0.9404 H         1 <0>         0.0913
     41 H7          0.4220   -2.5401   -2.0270 H         1 <0>         0.0432
     42 H8          1.1732   -1.3801   -0.9052 H         1 <0>         0.0429
     43 H9         -0.6455    1.5679    1.5667 H         1 <0>         0.0567
     44 H10        -1.2223    0.6099    2.9515 H         1 <0>         0.0579
     45 H11         0.5151    0.9494    2.7661 H         1 <0>         0.1033
     46 H12        -4.7496    1.1668    0.1206 H         1 <0>         0.4244
     47 H13        -7.1989   -3.5064   -0.1377 H         1 <0>         0.1774
     48 H14       -10.2090   -3.0313   -0.3869 H         1 <0>         0.1627
     49 H15       -11.5338   -0.7908   -0.5093 H         1 <0>         0.1827
     50 H16        -8.7948    2.0487    1.3350 H         1 <0>         0.1343
     51 H17        -9.4313    4.4226    1.2756 H         1 <0>         0.1411
     52 H18       -10.9418    5.2543   -0.4769 H         1 <0>         0.1327
     53 H19       -11.1783    1.3067   -2.1344 H         1 <0>         0.1453
     54 H20       -12.0742    5.7445   -1.8347 H         1 <0>         0.4020
     55 H21       -13.7903    4.8607   -4.1658 H         1 <0>         0.1408
     56 H22       -12.0568    7.4597   -3.8878 H         1 <0>         0.0981
     57 H23       -13.1963    7.0601   -5.2818 H         1 <0>         0.1052
     58 H24       -15.1422    6.9462   -3.6586 H         1 <0>         0.1066
     59 H25       -14.0027    7.3458   -2.2646 H         1 <0>         0.0985
@<TRIPOS>BOND
     1    1    2 1
     2    1   35 1
     3    1   36 1
     4    1   37 1
     5    2    3 1
     6    3    8 ar
     7    3    4 ar
     8    4    5 ar
     9    4   38 1
    10    5    6 ar
    11    5   13 1
    12    6    7 ar
    13    6   39 1
    14    7    8 ar
    15    7   11 1
    16    8    9 1
    17    9   10 1
    18   10   40 1
    19   10   41 1
    20   10   42 1
    21   11   12 1
    22   12   43 1
    23   12   44 1
    24   12   45 1
    25   13   14 1
    26   13   46 1
    27   14   22 ar
    28   14   15 ar
    29   15   16 ar
    30   16   17 ar
    31   16   47 1
    32   17   21 ar
    33   17   18 1
    34   18   19 2
    35   18   48 1
    36   19   20 1
    37   19   49 1
    38   20   21 1
    39   20   23 1
    40   21   22 ar
    41   23   28 ar
    42   23   24 ar
    43   24   25 ar
    44   24   50 1
    45   25   26 ar
    46   25   51 1
    47   26   27 ar
    48   26   52 1
    49   27   28 ar
    50   27   29 1
    51   28   53 1
    52   29   30 2
    53   29   31 am
    54   31   32 1
    55   31   54 1
    56   32   34 1
    57   32   33 1
    58   32   55 1
    59   33   34 1
    60   33   56 1
    61   33   57 1
    62   34   58 1
    63   34   59 1
@<TRIPOS>MOLECULE
CHEMBL207721
   61    64     0     0     0
SMALL
USER_CHARGES

@<TRIPOS>ATOM
      1 C1         -0.3398    2.3293   -1.6666 C.3       1 <0>        -0.1664
      2 C2         -0.2254    0.8196   -1.4466 C.3       1 <0>         0.1130
      3 N1          0.4218    0.2045   -2.6081 N.am      1 <0>        -0.7338
      4 C3          0.6298   -1.1268   -2.6371 C.2       1 <0>         0.5124
      5 O1          0.2812   -1.8156   -1.7018 O.2       1 <0>        -0.5283
      6 C4          1.2956   -1.7595   -3.8319 C.3       1 <0>        -0.1029
      7 C5          1.4083   -3.2466   -3.6152 C.ar      1 <0>        -0.0528
      8 C6          2.5284   -3.7716   -2.9966 C.ar      1 <0>        -0.0986
      9 C7          2.6353   -5.1353   -2.7956 C.ar      1 <0>        -0.0997
     10 C8          1.6232   -5.9778   -3.2128 C.ar      1 <0>        -0.1000
     11 C9          0.4976   -5.4538   -3.8340 C.ar      1 <0>         0.1235
     12 C10         0.3906   -4.0831   -4.0293 C.ar      1 <0>        -0.1025
     13 N2         -0.5305   -6.3058   -4.2586 N.pl3     1 <0>        -0.4174
     14 C11        -1.8646   -6.1296   -3.9828 C.2       1 <0>         0.0483
     15 C12        -2.5802   -7.1210   -4.5360 C.2       1 <0>        -0.1529
     16 C13        -1.6306   -8.0009   -5.2194 C.ar      1 <0>        -0.2490
     17 C14        -0.3541   -7.4345   -5.0154 C.ar      1 <0>         0.3674
     18 N3          0.7030   -8.0420   -5.5436 N.ar      1 <0>        -0.5701
     19 C15         0.5561   -9.1522   -6.2476 C.ar      1 <0>         0.5795
     20 N4         -0.6305   -9.7083   -6.4603 N.ar      1 <0>        -0.5586
     21 C16        -1.7339   -9.1745   -5.9642 C.ar      1 <0>         0.2420
     22 N5          1.6824   -9.7570   -6.7834 N.pl3     1 <0>        -0.6364
     23 C17         1.5471  -10.8646   -7.6288 C.ar      1 <0>         0.2463
     24 C18         0.4537  -10.9587   -8.4792 C.ar      1 <0>        -0.2290
     25 C19         0.3189  -12.0551   -9.3165 C.ar      1 <0>         0.1697
     26 C20         1.2787  -13.0601   -9.3047 C.ar      1 <0>         0.0082
     27 C21         2.3729  -12.9652   -8.4532 C.ar      1 <0>         0.1713
     28 C22         2.5091  -11.8655   -7.6205 C.ar      1 <0>        -0.2656
     29 O2          3.3125  -13.9482   -8.4409 O.3       1 <0>        -0.2995
     30 C23         4.4103  -13.7851   -7.5408 C.3       1 <0>         0.0243
     31 O3          1.1467  -14.1377  -10.1268 O.3       1 <0>        -0.3106
     32 C24         1.7358  -14.0393  -11.4250 C.3       1 <0>         0.0345
     33 O4         -0.7523  -12.1473  -10.1491 O.3       1 <0>        -0.2995
     34 C25        -1.6997  -11.0783  -10.1083 C.3       1 <0>         0.0258
     35 H1          0.6557    2.7543   -1.7952 H         1 <0>         0.0624
     36 H2         -0.9353    2.5224   -2.5589 H         1 <0>         0.0623
     37 H3         -0.8213    2.7870   -0.8024 H         1 <0>         0.0756
     38 H4          0.3701    0.6265   -0.5543 H         1 <0>         0.0678
     39 H5         -1.2208    0.3946   -1.3180 H         1 <0>         0.0676
     40 H6          0.7007    0.7554   -3.3562 H         1 <0>         0.4015
     41 H7          0.7001   -1.5665   -4.7242 H         1 <0>         0.1056
     42 H8          2.2911   -1.3346   -3.9605 H         1 <0>         0.1083
     43 H9          3.3213   -3.1150   -2.6703 H         1 <0>         0.1278
     44 H10         3.5111   -5.5423   -2.3123 H         1 <0>         0.1330
     45 H11         1.7075   -7.0431   -3.0561 H         1 <0>         0.1271
     46 H12        -0.4857   -3.6721   -4.5086 H         1 <0>         0.1273
     47 H13        -2.2764   -5.3143   -3.4064 H         1 <0>         0.1806
     48 H14        -3.6518   -7.2461   -4.4860 H         1 <0>         0.1611
     49 H15        -2.6960   -9.6318   -6.1421 H         1 <0>         0.1763
     50 H16         2.5645   -9.4127   -6.5725 H         1 <0>         0.4244
     51 H17        -0.2922  -10.1778   -8.4880 H         1 <0>         0.1496
     52 H18         3.3617  -11.7894   -6.9618 H         1 <0>         0.1370
     53 H19         5.0841  -14.6371   -7.6313 H         1 <0>         0.1033
     54 H20         4.9479  -12.8691   -7.7856 H         1 <0>         0.0567
     55 H21         4.0363  -13.7247   -6.5187 H         1 <0>         0.0579
     56 H22         2.8089  -13.8764  -11.3256 H         1 <0>         0.0428
     57 H23         1.5579  -14.9631  -11.9756 H         1 <0>         0.0911
     58 H24         1.2897  -13.2035  -11.9639 H         1 <0>         0.0430
     59 H25        -2.1155  -10.9994   -9.1038 H         1 <0>         0.0624
     60 H26        -1.2044  -10.1436  -10.3709 H         1 <0>         0.0531
     61 H27        -2.5020  -11.2765  -10.8190 H         1 <0>         0.1019
@<TRIPOS>BOND
     1    1    2 1
     2    1   35 1
     3    1   36 1
     4    1   37 1
     5    2    3 1
     6    2   38 1
     7    2   39 1
     8    3    4 am
     9    3   40 1
    10    4    5 2
    11    4    6 1
    12    6    7 1
    13    6   41 1
    14    6   42 1
    15    7   12 ar
    16    7    8 ar
    17    8    9 ar
    18    8   43 1
    19    9   10 ar
    20    9   44 1
    21   10   11 ar
    22   10   45 1
    23   11   12 ar
    24   11   13 1
    25   12   46 1
    26   13   17 1
    27   13   14 1
    28   14   15 2
    29   14   47 1
    30   15   16 1
    31   15   48 1
    32   16   21 ar
    33   16   17 ar
    34   17   18 ar
    35   18   19 ar
    36   19   20 ar
    37   19   22 1
    38   20   21 ar
    39   21   49 1
    40   22   23 1
    41   22   50 1
    42   23   28 ar
    43   23   24 ar
    44   24   25 ar
    45   24   51 1
    46   25   26 ar
    47   25   33 1
    48   26   27 ar
    49   26   31 1
    50   27   28 ar
    51   27   29 1
    52   28   52 1
    53   29   30 1
    54   30   53 1
    55   30   54 1
    56   30   55 1
    57   31   32 1
    58   32   56 1
    59   32   57 1
    60   32   58 1
    61   33   34 1
    62   34   59 1
    63   34   60 1
    64   34   61 1
@<TRIPOS>MOLECULE
CHEMBL208419
   52    56     0     0     0
SMALL
USER_CHARGES

@<TRIPOS>ATOM
      1 C1         -3.4372   -3.9339   -2.2691 C.3       1 <0>         0.0253
      2 O1         -2.2736   -3.5696   -1.5240 O.3       1 <0>        -0.3013
      3 C2         -2.3505   -2.4385   -0.7729 C.ar      1 <0>         0.1696
      4 C3         -3.5231   -1.6998   -0.7502 C.ar      1 <0>        -0.2291
      5 C4         -3.6018   -0.5450    0.0165 C.ar      1 <0>         0.2535
      6 C5         -2.5063   -0.1295    0.7614 C.ar      1 <0>        -0.2674
      7 C6         -1.3330   -0.8671    0.7397 C.ar      1 <0>         0.1700
      8 C7         -1.2552   -2.0260   -0.0234 C.ar      1 <0>         0.0038
      9 O2         -0.1045   -2.7540   -0.0411 O.3       1 <0>        -0.3107
     10 C8          0.8619   -2.4156   -1.0378 C.3       1 <0>         0.0342
     11 O3         -0.2598   -0.4595    1.4687 O.3       1 <0>        -0.3014
     12 C9         -0.4122    0.7379    2.2336 C.3       1 <0>         0.0245
     13 N1         -4.7862    0.2011    0.0381 N.pl3     1 <0>        -0.6386
     14 C10        -6.0112   -0.4404   -0.0583 C.ar      1 <0>         0.5720
     15 N2         -6.0401   -1.7680   -0.0528 N.ar      1 <0>        -0.5623
     16 C11        -7.1829   -2.4265   -0.1424 C.ar      1 <0>         0.2358
     17 C12        -8.3670   -1.6975   -0.2436 C.ar      1 <0>        -0.2456
     18 C13        -9.7861   -2.0379   -0.3576 C.2       1 <0>        -0.1657
     19 C14       -10.4612   -0.8797   -0.4197 C.2       1 <0>         0.0608
     20 N3         -9.5848    0.1761   -0.3543 N.pl3     1 <0>        -0.4078
     21 C15        -8.3000   -0.2881   -0.2464 C.ar      1 <0>         0.3662
     22 N4         -7.1086    0.2923   -0.1470 N.ar      1 <0>        -0.5630
     23 C16        -9.9506    1.5282   -0.3927 C.ar      1 <0>         0.1087
     24 C17        -9.4585    2.4086    0.5632 C.ar      1 <0>        -0.1166
     25 C18        -9.8169    3.7428    0.5296 C.ar      1 <0>        -0.1054
     26 C19       -10.6657    4.2095   -0.4540 C.ar      1 <0>        -0.0963
     27 C20       -11.1644    3.3335   -1.4180 C.ar      1 <0>         0.0647
     28 C21       -10.7988    1.9887   -1.3874 C.ar      1 <0>        -0.0997
     29 C22       -12.0749    3.8315   -2.4739 C.2       1 <0>         0.0714
     30 N5        -12.5050    5.0843   -2.6311 N.2       1 <0>        -0.3636
     31 N6        -13.2772    5.1021   -3.6633 N.2       1 <0>        -0.1876
     32 N7        -13.3500    3.9168   -4.1596 N.2       1 <0>        -0.1876
     33 N8        -12.6217    3.1167   -3.4585 N.2       1 <0>        -0.3657
     34 H1         -3.2415   -4.8523   -2.8225 H         1 <0>         0.1006
     35 H2         -4.2715   -4.0922   -1.5857 H         1 <0>         0.0633
     36 H3         -3.6863   -3.1349   -2.9675 H         1 <0>         0.0541
     37 H4         -4.3756   -2.0224   -1.3294 H         1 <0>         0.1505
     38 H5         -2.5683    0.7689    1.3575 H         1 <0>         0.1367
     39 H6          0.4219   -2.5392   -2.0274 H         1 <0>         0.0426
     40 H7          1.1730   -1.3794   -0.9053 H         1 <0>         0.0420
     41 H8          1.7281   -3.0702   -0.9411 H         1 <0>         0.0889
     42 H9         -0.6455    1.5679    1.5667 H         1 <0>         0.0569
     43 H10        -1.2223    0.6099    2.9515 H         1 <0>         0.0579
     44 H11         0.5151    0.9494    2.7661 H         1 <0>         0.1014
     45 H12        -4.7496    1.1668    0.1206 H         1 <0>         0.4246
     46 H13        -7.1989   -3.5064   -0.1377 H         1 <0>         0.1734
     47 H14       -10.2090   -3.0313   -0.3866 H         1 <0>         0.1590
     48 H15       -11.5339   -0.7909   -0.5083 H         1 <0>         0.1820
     49 H16        -8.7941    2.0489    1.3350 H         1 <0>         0.1207
     50 H17        -9.4320    4.4225    1.2755 H         1 <0>         0.1289
     51 H18       -10.9439    5.2528   -0.4769 H         1 <0>         0.1358
     52 H19       -11.1788    1.3069   -2.1338 H         1 <0>         0.1357
@<TRIPOS>BOND
     1    1    2 1
     2    1   34 1
     3    1   35 1
     4    1   36 1
     5    2    3 1
     6    3    8 ar
     7    3    4 ar
     8    4    5 ar
     9    4   37 1
    10    5    6 ar
    11    5   13 1
    12    6    7 ar
    13    6   38 1
    14    7    8 ar
    15    7   11 1
    16    8    9 1
    17    9   10 1
    18   10   39 1
    19   10   40 1
    20   10   41 1
    21   11   12 1
    22   12   42 1
    23   12   43 1
    24   12   44 1
    25   13   14 1
    26   13   45 1
    27   14   22 ar
    28   14   15 ar
    29   15   16 ar
    30   16   17 ar
    31   16   46 1
    32   17   21 ar
    33   17   18 1
    34   18   19 2
    35   18   47 1
    36   19   20 1
    37   19   48 1
    38   20   21 1
    39   20   23 1
    40   21   22 ar
    41   23   28 ar
    42   23   24 ar
    43   24   25 ar
    44   24   49 1
    45   25   26 ar
    46   25   50 1
    47   26   27 ar
    48   26   51 1
    49   27   28 ar
    50   27   29 1
    51   28   52 1
    52   29   30 2
    53   29   33 1
    54   30   31 1
    55   31   32 2
    56   32   33 1
@<TRIPOS>MOLECULE
CHEMBL439154
   62    66     0     0     0
SMALL
USER_CHARGES

@<TRIPOS>ATOM
      1 C1         -0.1470   -3.9244    4.1298 C.3       1 <0>         0.0257
      2 O1         -0.0925   -3.5635    2.7482 O.3       1 <0>        -0.2995
      3 C2          0.5679   -2.4165    2.4353 C.ar      1 <0>         0.1696
      4 C3          1.1549   -1.6593    3.4370 C.ar      1 <0>        -0.2286
      5 C4          1.8291   -0.4884    3.1178 C.ar      1 <0>         0.2464
      6 C5          1.9162   -0.0752    1.7952 C.ar      1 <0>        -0.2651
      7 C6          1.3296   -0.8313    0.7925 C.ar      1 <0>         0.1708
      8 C7          0.6591   -2.0063    1.1107 C.ar      1 <0>         0.0087
      9 O2          0.0871   -2.7524    0.1255 O.3       1 <0>        -0.3104
     10 C8         -1.2674   -2.4491   -0.2144 C.3       1 <0>         0.0342
     11 O3          1.4143   -0.4259   -0.5029 O.3       1 <0>        -0.2996
     12 C9          2.1228    0.7887   -0.7575 C.3       1 <0>         0.0243
     13 N1          2.4210    0.2763    4.1301 N.pl3     1 <0>        -0.6363
     14 C10         2.9657   -0.3478    5.2414 C.ar      1 <0>         0.5802
     15 N2          3.0183   -1.6744    5.2684 N.ar      1 <0>        -0.5582
     16 C11         3.5284   -2.3167    6.3052 C.ar      1 <0>         0.2419
     17 C12         4.0142   -1.5715    7.3787 C.ar      1 <0>        -0.2502
     18 C13         4.6332   -1.8920    8.6659 C.2       1 <0>        -0.1518
     19 C14         4.8877   -0.7249    9.2776 C.2       1 <0>         0.0455
     20 N3          4.4799    0.3182    8.4822 N.pl3     1 <0>        -0.4179
     21 C15         3.9429   -0.1637    7.3172 C.ar      1 <0>         0.3685
     22 N4          3.4190    0.4000    6.2336 N.ar      1 <0>        -0.5691
     23 C16         4.5955    1.6747    8.8135 C.ar      1 <0>         0.1236
     24 C17         5.1545    2.5668    7.9079 C.ar      1 <0>        -0.0997
     25 C18         5.2671    3.9032    8.2373 C.ar      1 <0>        -0.0998
     26 C19         4.8239    4.3534    9.4676 C.ar      1 <0>        -0.0983
     27 C20         4.2673    3.4675   10.3715 C.ar      1 <0>        -0.0539
     28 C21         4.1463    2.1306   10.0454 C.ar      1 <0>        -0.1015
     29 C22         3.7861    3.9621   11.7112 C.3       1 <0>        -0.1011
     30 C23         2.3396    4.3715   11.6055 C.2       1 <0>         0.5166
     31 O4          1.7569    4.2715   10.5466 O.2       1 <0>        -0.5237
     32 N5          1.6935    4.8487   12.6878 N.am      1 <0>        -0.7050
     33 C24         0.2873    5.2467   12.5850 C.3       1 <0>         0.0765
     34 C25        -0.1274    6.5559   13.2595 C.3       1 <0>        -0.1920
     35 C26        -0.5509    5.2159   13.8646 C.3       1 <0>        -0.1883
     36 H1         -0.6472   -3.1358    4.6919 H         1 <0>         0.0532
     37 H2         -0.7009   -4.8567    4.2402 H         1 <0>         0.1019
     38 H3          0.8656   -4.0561    4.5112 H         1 <0>         0.0623
     39 H4          1.0876   -1.9801    4.4660 H         1 <0>         0.1492
     40 H5          2.4408    0.8358    1.5477 H         1 <0>         0.1371
     41 H6         -1.3341   -1.4154   -0.5536 H         1 <0>         0.0428
     42 H7         -1.6000   -3.1151   -1.0107 H         1 <0>         0.0910
     43 H8         -1.9012   -2.5856    0.6618 H         1 <0>         0.0431
     44 H9          2.1151    0.9962   -1.8276 H         1 <0>         0.1032
     45 H10         1.6411    1.6087   -0.2249 H         1 <0>         0.0568
     46 H11         3.1524    0.6876   -0.4144 H         1 <0>         0.0579
     47 H12         2.4498    1.2429    4.0538 H         1 <0>         0.4248
     48 H13         3.5675   -3.3959    6.3205 H         1 <0>         0.1763
     49 H14         4.8443   -2.8790    9.0502 H         1 <0>         0.1610
     50 H15         5.3448   -0.6211   10.2506 H         1 <0>         0.1806
     51 H16         5.5011    2.2159    6.9471 H         1 <0>         0.1273
     52 H17         5.7021    4.5974    7.5336 H         1 <0>         0.1331
     53 H18         4.9131    5.3989    9.7229 H         1 <0>         0.1280
     54 H19         3.7070    1.4400   10.7500 H         1 <0>         0.1276
     55 H20         3.8854    3.1663   12.4494 H         1 <0>         0.1070
     56 H21         4.3848    4.8195   12.0184 H         1 <0>         0.1095
     57 H22         2.1596    4.9287   13.5347 H         1 <0>         0.4025
     58 H23        -0.2092    4.9818   11.6516 H         1 <0>         0.1375
     59 H24         0.6459    7.1211   13.7797 H         1 <0>         0.0978
     60 H25        -0.8970    7.1526   12.7698 H         1 <0>         0.1034
     61 H26        -1.5990    4.9311   13.7729 H         1 <0>         0.1046
     62 H27        -0.0561    4.8996   14.7829 H         1 <0>         0.0982
@<TRIPOS>BOND
     1    1    2 1
     2    1   36 1
     3    1   37 1
     4    1   38 1
     5    2    3 1
     6    3    8 ar
     7    3    4 ar
     8    4    5 ar
     9    4   39 1
    10    5    6 ar
    11    5   13 1
    12    6    7 ar
    13    6   40 1
    14    7    8 ar
    15    7   11 1
    16    8    9 1
    17    9   10 1
    18   10   41 1
    19   10   42 1
    20   10   43 1
    21   11   12 1
    22   12   44 1
    23   12   45 1
    24   12   46 1
    25   13   14 1
    26   13   47 1
    27   14   22 ar
    28   14   15 ar
    29   15   16 ar
    30   16   17 ar
    31   16   48 1
    32   17   21 ar
    33   17   18 1
    34   18   19 2
    35   18   49 1
    36   19   20 1
    37   19   50 1
    38   20   21 1
    39   20   23 1
    40   21   22 ar
    41   23   28 ar
    42   23   24 ar
    43   24   25 ar
    44   24   51 1
    45   25   26 ar
    46   25   52 1
    47   26   27 ar
    48   26   53 1
    49   27   28 ar
    50   27   29 1
    51   28   54 1
    52   29   30 1
    53   29   55 1
    54   29   56 1
    55   30   31 2
    56   30   32 am
    57   32   33 1
    58   32   57 1
    59   33   35 1
    60   33   34 1
    61   33   58 1
    62   34   35 1
    63   34   59 1
    64   34   60 1
    65   35   61 1
    66   35   62 1
@<TRIPOS>MOLECULE
CHEMBL488446
   49    52     0     0     0
SMALL
USER_CHARGES

@<TRIPOS>ATOM
      1 C1         -0.0634    1.1582    2.0089 C.ar      1 <0>        -0.0741
      2 C2          1.0949    1.8688    2.2440 C.ar      1 <0>        -0.1153
      3 C3          2.3092    1.4216    1.7274 C.ar      1 <0>         0.1281
      4 C4          2.3337    0.2536    0.9752 C.ar      1 <0>        -0.1218
      5 C5          1.1801   -0.4577    0.7379 C.ar      1 <0>        -0.0890
      6 C6         -0.0293   -0.0081    1.2560 C.ar      1 <0>         0.1397
      7 N1         -1.2068   -0.7276    1.0197 N.pl3     1 <0>        -0.6224
      8 C7         -2.4118   -0.0585    0.8846 C.ar      1 <0>         0.6214
      9 N2         -2.4195    1.2665    0.8937 N.ar      1 <0>        -0.5829
     10 C8         -3.5523    1.9417    0.7671 C.ar      1 <0>         0.2740
     11 C9         -4.7392    1.2497    0.6237 C.ar      1 <0>        -0.4118
     12 C10        -4.6999   -0.1463    0.6177 C.ar      1 <0>         0.5185
     13 N3         -3.5271   -0.7590    0.7441 N.ar      1 <0>        -0.6020
     14 N4         -5.8655   -0.8816    0.4770 N.pl3     1 <0>        -0.6950
     15 C11        -5.8119   -2.3456    0.4722 C.3       1 <0>         0.1393
     16 H1         -4.9698   -2.6792   -0.1342 H         1 <0>         0.1261
     17 C12        -7.1145   -2.9060   -0.1040 C.3       1 <0>        -0.1273
     18 C13        -8.2937   -2.0325    0.2841 C.3       1 <0>        -0.1288
     19 C14        -8.6008   -2.0427    1.7705 C.3       1 <0>        -0.1459
     20 C15        -7.4740   -1.3794    2.5647 C.3       1 <0>         0.0888
     21 N5         -6.4467   -2.3914    2.8596 N.am      1 <0>        -0.7201
     22 C16        -5.6510   -2.8535    1.8896 C.2       1 <0>         0.5154
     23 O1         -4.8034   -3.6836    2.1416 O.2       1 <0>        -0.5311
     24 C17        -6.0468    1.9844    0.4777 C.3       1 <0>         0.5279
     25 F1         -5.8137    3.3633    0.5156 F         1 <0>        -0.1699
     26 F2         -6.6386    1.6449   -0.7437 F         1 <0>        -0.1776
     27 F3         -6.9021    1.6270    1.5255 F         1 <0>        -0.1796
     28 C18         3.7732    0.0405    0.5667 C.3       1 <0>        -0.1141
     29 C19         4.5079    1.2139    1.1789 C.2       1 <0>         0.5282
     30 O2          5.6969    1.4403    1.0991 O.2       1 <0>        -0.5031
     31 N6          3.5959    1.9577    1.8273 N.am      1 <0>        -0.6594
     32 H2         -1.0006    1.5080    2.4160 H         1 <0>         0.1457
     33 H3          1.0606    2.7752    2.8302 H         1 <0>         0.1320
     34 H4          1.2140   -1.3640    0.1514 H         1 <0>         0.1345
     35 H5         -1.1786   -1.6947    0.9506 H         1 <0>         0.4288
     36 H6         -3.5479    3.0217    0.7761 H         1 <0>         0.1840
     37 H7         -6.7171   -0.4271    0.3817 H         1 <0>         0.4179
     38 H8         -7.0389   -2.9447   -1.1907 H         1 <0>         0.0895
     39 H9         -7.2726   -3.9137    0.2802 H         1 <0>         0.0886
     40 H10        -8.0825   -1.0075   -0.0205 H         1 <0>         0.0588
     41 H11        -9.1753   -2.3781   -0.2557 H         1 <0>         0.0825
     42 H12        -9.5306   -1.5022    1.9480 H         1 <0>         0.0838
     43 H13        -8.7168   -3.0734    2.1054 H         1 <0>         0.0772
     44 H14        -7.0357   -0.5743    1.9750 H         1 <0>         0.0846
     45 H15        -7.8708   -0.9785    3.4974 H         1 <0>         0.0896
     46 H16        -6.3440   -2.7243    3.7649 H         1 <0>         0.4011
     47 H17         4.1498   -0.8989    0.9714 H         1 <0>         0.1255
     48 H18         3.8681    0.0550   -0.5190 H         1 <0>         0.1253
     49 H19         3.8064    2.7728    2.3092 H         1 <0>         0.4143
@<TRIPOS>BOND
     1    1    6 ar
     2    1    2 ar
     3    1   32 1
     4    2    3 ar
     5    2   33 1
     6    3   31 1
     7    3    4 ar
     8    4    5 ar
     9    4   28 1
    10    5    6 ar
    11    5   34 1
    12    6    7 1
    13    7    8 1
    14    7   35 1
    15    8   13 ar
    16    8    9 ar
    17    9   10 ar
    18   10   11 ar
    19   10   36 1
    20   11   12 ar
    21   11   24 1
    22   12   13 ar
    23   12   14 1
    24   14   15 1
    25   14   37 1
    26   15   16 1
    27   15   22 1
    28   15   17 1
    29   17   18 1
    30   17   38 1
    31   17   39 1
    32   18   19 1
    33   18   40 1
    34   18   41 1
    35   19   20 1
    36   19   42 1
    37   19   43 1
    38   20   21 1
    39   20   44 1
    40   20   45 1
    41   21   22 am
    42   21   46 1
    43   22   23 2
    44   24   25 1
    45   24   26 1
    46   24   27 1
    47   28   29 1
    48   28   47 1
    49   28   48 1
    50   29   30 2
    51   29   31 am
    52   31   49 1
@<TRIPOS>MOLECULE
CHEMBL205942
   38    41     0     0     0
SMALL
USER_CHARGES

@<TRIPOS>ATOM
      1 C1          1.5286    1.0505   -0.2883 C.3       1 <0>        -0.1147
      2 C2          0.7316   -0.2199   -0.1403 C.ar      1 <0>        -0.0657
      3 C3         -0.0276   -0.6862   -1.1982 C.ar      1 <0>        -0.1403
      4 C4         -0.7604   -1.8513   -1.0667 C.ar      1 <0>        -0.0958
      5 C5         -0.7360   -2.5538    0.1224 C.ar      1 <0>        -0.1202
      6 C6          0.0256   -2.0886    1.1865 C.ar      1 <0>         0.1728
      7 C7          0.7645   -0.9201    1.0494 C.ar      1 <0>        -0.1515
      8 N1          0.0525   -2.7971    2.3913 N.pl3     1 <0>        -0.6371
      9 C8         -0.0333   -4.1807    2.3838 C.ar      1 <0>         0.5770
     10 N2         -0.0229   -4.8158    1.2178 N.ar      1 <0>        -0.5576
     11 C9         -0.1019   -6.1342    1.1575 C.ar      1 <0>         0.2418
     12 C10        -0.1973   -6.8520    2.3489 C.ar      1 <0>        -0.2578
     13 C11        -0.3005   -8.2701    2.6978 C.2       1 <0>        -0.1348
     14 C12        -0.3622   -8.3392    4.0363 C.2       1 <0>         0.0353
     15 N3         -0.3065   -7.0751    4.5728 N.pl3     1 <0>        -0.4116
     16 C13        -0.2057   -6.1455    3.5699 C.ar      1 <0>         0.3807
     17 N4         -0.1172   -4.8200    3.5385 N.ar      1 <0>        -0.5442
     18 C14        -0.3472   -6.7809    5.9371 C.ar      1 <0>         0.3463
     19 C15        -0.4453   -7.8142    6.8616 C.ar      1 <0>        -0.1894
     20 C16        -0.4842   -7.5089    8.2107 C.ar      1 <0>        -0.0473
     21 C17        -0.4234   -6.1747    8.5898 C.ar      1 <0>        -0.1904
     22 C18        -0.3266   -5.1995    7.6170 C.ar      1 <0>         0.1348
     23 N5         -0.2865   -5.5213    6.3382 N.ar      1 <0>        -0.4788
     24 H1          2.5232    0.8135   -0.6659 H         1 <0>         0.0709
     25 H2          1.0237    1.7169   -0.9876 H         1 <0>         0.0677
     26 H3          1.6154    1.5401    0.6817 H         1 <0>         0.0655
     27 H4         -0.0484   -0.1388   -2.1290 H         1 <0>         0.1212
     28 H5         -1.3527   -2.2124   -1.8944 H         1 <0>         0.1242
     29 H6         -1.3089   -3.4636    0.2246 H         1 <0>         0.1329
     30 H7          1.3607   -0.5576    1.8737 H         1 <0>         0.1227
     31 H8          0.1313   -2.3206    3.2325 H         1 <0>         0.4231
     32 H9         -0.0932   -6.6442    0.2056 H         1 <0>         0.1771
     33 H10        -0.3227   -9.1019    2.0093 H         1 <0>         0.1649
     34 H11        -0.4435   -9.2524    4.6072 H         1 <0>         0.1843
     35 H12        -0.4909   -8.8415    6.5315 H         1 <0>         0.1414
     36 H13        -0.5605   -8.2907    8.9519 H         1 <0>         0.1449
     37 H14        -0.4518   -5.9024    9.6345 H         1 <0>         0.1425
     38 H15        -0.2790   -4.1602    7.9069 H         1 <0>         0.1650
@<TRIPOS>BOND
     1    1    2 1
     2    1   24 1
     3    1   25 1
     4    1   26 1
     5    2    7 ar
     6    2    3 ar
     7    3    4 ar
     8    3   27 1
     9    4    5 ar
    10    4   28 1
    11    5    6 ar
    12    5   29 1
    13    6    7 ar
    14    6    8 1
    15    7   30 1
    16    8    9 1
    17    8   31 1
    18    9   17 ar
    19    9   10 ar
    20   10   11 ar
    21   11   12 ar
    22   11   32 1
    23   12   16 ar
    24   12   13 1
    25   13   14 2
    26   13   33 1
    27   14   15 1
    28   14   34 1
    29   15   16 1
    30   15   18 1
    31   16   17 ar
    32   18   23 ar
    33   18   19 ar
    34   19   20 ar
    35   19   35 1
    36   20   21 ar
    37   20   36 1
    38   21   22 ar
    39   21   37 1
    40   22   23 ar
    41   22   38 1
@<TRIPOS>MOLECULE
CHEMBL207126
   61    64     0     0     0
SMALL
USER_CHARGES

@<TRIPOS>ATOM
      1 C1          1.6518    2.2278    0.5780 C.3       1 <0>         0.0848
      2 N1          1.4371    0.7792    0.5387 N.am      1 <0>        -0.7378
      3 C2          1.9836   -0.0090    1.4855 C.2       1 <0>         0.5096
      4 O1          2.6532    0.4810    2.3701 O.2       1 <0>        -0.5370
      5 C3          1.7628   -1.4992    1.4450 C.3       1 <0>        -0.1351
      6 C4          2.4855   -2.1541    2.6239 C.3       1 <0>        -0.0655
      7 C5          2.2647   -3.6442    2.5834 C.ar      1 <0>        -0.0669
      8 C6          1.1775   -4.1994    3.2334 C.ar      1 <0>        -0.1103
      9 C7          0.9712   -5.5660    3.1982 C.ar      1 <0>        -0.0986
     10 C8          1.8514   -6.3814    2.5136 C.ar      1 <0>        -0.1051
     11 C9          2.9437   -5.8272    1.8601 C.ar      1 <0>         0.1251
     12 C10         3.1450   -4.4535    1.8926 C.ar      1 <0>        -0.1144
     13 N2          3.8385   -6.6515    1.1653 N.pl3     1 <0>        -0.4186
     14 C11         4.2635   -6.4429   -0.1242 C.2       1 <0>         0.0456
     15 C12         5.1157   -7.4141   -0.4871 C.2       1 <0>        -0.1511
     16 C13         5.2467   -8.3151    0.6592 C.ar      1 <0>        -0.2500
     17 C14         4.4233   -7.7817    1.6738 C.ar      1 <0>         0.3681
     18 N3          4.3620   -8.4137    2.8410 N.ar      1 <0>        -0.5706
     19 C15         5.0624   -9.5174    3.0436 C.ar      1 <0>         0.5806
     20 N4          5.8482  -10.0427    2.1113 N.ar      1 <0>        -0.5582
     21 C16         5.9616   -9.4831    0.9186 C.ar      1 <0>         0.2424
     22 N5          4.9729  -10.1483    4.2745 N.pl3     1 <0>        -0.6361
     23 C17         5.7900  -11.2492    4.5578 C.ar      1 <0>         0.2456
     24 C18         7.0743  -11.3130    4.0344 C.ar      1 <0>        -0.2288
     25 C19         7.8839  -12.4026    4.3145 C.ar      1 <0>         0.1698
     26 C20         7.4097  -13.4315    5.1194 C.ar      1 <0>         0.0086
     27 C21         6.1240  -13.3670    5.6430 C.ar      1 <0>         0.1713
     28 C22         5.3176  -12.2740    5.3666 C.ar      1 <0>        -0.2653
     29 O2          5.6591  -14.3733    6.4307 O.3       1 <0>        -0.2995
     30 C23         4.3284  -14.2410    6.9345 C.3       1 <0>         0.0243
     31 O3          8.2044  -14.5026    5.3946 O.3       1 <0>        -0.3106
     32 C24         9.0328  -14.4144    6.5557 C.3       1 <0>         0.0344
     33 O4          9.1418  -12.4651    3.8014 O.3       1 <0>        -0.2994
     34 C25         9.5632  -11.3728    2.9820 C.3       1 <0>         0.0258
     35 H1          2.7191    2.4389    0.5124 H         1 <0>         0.0604
     36 H2          1.1369    2.6944   -0.2618 H         1 <0>         0.0764
     37 H3          1.2591    2.6281    1.5127 H         1 <0>         0.0605
     38 H4          0.9016    0.3873   -0.1688 H         1 <0>         0.4029
     39 H5          0.6954   -1.7102    1.5106 H         1 <0>         0.0973
     40 H6          2.1555   -1.8994    0.5103 H         1 <0>         0.0957
     41 H7          3.5529   -1.9430    2.5583 H         1 <0>         0.0828
     42 H8          2.0928   -1.7538    3.5586 H         1 <0>         0.0856
     43 H9          0.4883   -3.5640    3.7699 H         1 <0>         0.1302
     44 H10         0.1213   -5.9966    3.7068 H         1 <0>         0.1325
     45 H11         1.6901   -7.4490    2.4870 H         1 <0>         0.1267
     46 H12         3.9915   -4.0190    1.3817 H         1 <0>         0.1299
     47 H13         3.9574   -5.6196   -0.7526 H         1 <0>         0.1805
     48 H14         5.6098   -7.5124   -1.4424 H         1 <0>         0.1612
     49 H15         6.6036   -9.9155    0.1654 H         1 <0>         0.1765
     50 H16         4.3441   -9.8271    4.9396 H         1 <0>         0.4246
     51 H17         7.4425  -10.5135    3.4086 H         1 <0>         0.1495
     52 H18         4.3200  -12.2216    5.7770 H         1 <0>         0.1370
     53 H19         4.0834  -15.1093    7.5461 H         1 <0>         0.1034
     54 H20         4.2575  -13.3379    7.5407 H         1 <0>         0.0568
     55 H21         3.6292  -14.1748    6.1009 H         1 <0>         0.0578
     56 H22         9.7094  -13.5658    6.4556 H         1 <0>         0.0432
     57 H23         8.4079  -14.2788    7.4384 H         1 <0>         0.0429
     58 H24         9.6129  -15.3315    6.6585 H         1 <0>         0.0912
     59 H25         9.5285  -10.4498    3.5609 H         1 <0>         0.0532
     60 H26        10.5827  -11.5483    2.6388 H         1 <0>         0.1020
     61 H27         8.8997  -11.2870    2.1215 H         1 <0>         0.0623
@<TRIPOS>BOND
     1    1    2 1
     2    1   35 1
     3    1   36 1
     4    1   37 1
     5    2    3 am
     6    2   38 1
     7    3    4 2
     8    3    5 1
     9    5    6 1
    10    5   39 1
    11    5   40 1
    12    6    7 1
    13    6   41 1
    14    6   42 1
    15    7   12 ar
    16    7    8 ar
    17    8    9 ar
    18    8   43 1
    19    9   10 ar
    20    9   44 1
    21   10   11 ar
    22   10   45 1
    23   11   12 ar
    24   11   13 1
    25   12   46 1
    26   13   17 1
    27   13   14 1
    28   14   15 2
    29   14   47 1
    30   15   16 1
    31   15   48 1
    32   16   21 ar
    33   16   17 ar
    34   17   18 ar
    35   18   19 ar
    36   19   20 ar
    37   19   22 1
    38   20   21 ar
    39   21   49 1
    40   22   23 1
    41   22   50 1
    42   23   28 ar
    43   23   24 ar
    44   24   25 ar
    45   24   51 1
    46   25   26 ar
    47   25   33 1
    48   26   27 ar
    49   26   31 1
    50   27   28 ar
    51   27   29 1
    52   28   52 1
    53   29   30 1
    54   30   53 1
    55   30   54 1
    56   30   55 1
    57   31   32 1
    58   32   56 1
    59   32   57 1
    60   32   58 1
    61   33   34 1
    62   34   59 1
    63   34   60 1
    64   34   61 1
@<TRIPOS>MOLECULE
CHEMBL382192
   67    70     0     0     0
SMALL
USER_CHARGES

@<TRIPOS>ATOM
      1 C1         -3.4372   -3.9339   -2.2691 C.3       1 <0>         0.0258
      2 O1         -2.2736   -3.5696   -1.5240 O.3       1 <0>        -0.2994
      3 C2         -2.3505   -2.4385   -0.7729 C.ar      1 <0>         0.1696
      4 C3         -3.5231   -1.6998   -0.7502 C.ar      1 <0>        -0.2286
      5 C4         -3.6018   -0.5450    0.0165 C.ar      1 <0>         0.2456
      6 C5         -2.5063   -0.1295    0.7614 C.ar      1 <0>        -0.2651
      7 C6         -1.3330   -0.8671    0.7397 C.ar      1 <0>         0.1709
      8 C7         -1.2552   -2.0260   -0.0234 C.ar      1 <0>         0.0090
      9 O2         -0.1045   -2.7541   -0.0411 O.3       1 <0>        -0.3104
     10 C8          0.8620   -2.4157   -1.0378 C.3       1 <0>         0.0343
     11 O3         -0.2599   -0.4595    1.4688 O.3       1 <0>        -0.2995
     12 C9         -0.4122    0.7379    2.2337 C.3       1 <0>         0.0243
     13 N1         -4.7862    0.2011    0.0381 N.pl3     1 <0>        -0.6363
     14 C10        -6.0112   -0.4404   -0.0583 C.ar      1 <0>         0.5801
     15 N2         -6.0401   -1.7680   -0.0528 N.ar      1 <0>        -0.5581
     16 C11        -7.1829   -2.4265   -0.1424 C.ar      1 <0>         0.2424
     17 C12        -8.3670   -1.6975   -0.2436 C.ar      1 <0>        -0.2497
     18 C13        -9.7861   -2.0379   -0.3576 C.2       1 <0>        -0.1515
     19 C14       -10.4612   -0.8797   -0.4197 C.2       1 <0>         0.0463
     20 N3         -9.5848    0.1761   -0.3543 N.pl3     1 <0>        -0.4185
     21 C15        -8.3000   -0.2881   -0.2464 C.ar      1 <0>         0.3673
     22 N4         -7.1086    0.2923   -0.1470 N.ar      1 <0>        -0.5705
     23 C16        -9.9506    1.5281   -0.3927 C.ar      1 <0>         0.1248
     24 C17        -9.4596    2.4090    0.5619 C.ar      1 <0>        -0.1044
     25 C18        -9.8220    3.7410    0.5215 C.ar      1 <0>        -0.0988
     26 C19       -10.6730    4.1978   -0.4684 C.ar      1 <0>        -0.1095
     27 C20       -11.1639    3.3231   -1.4199 C.ar      1 <0>        -0.0683
     28 C21       -10.8001    1.9908   -1.3884 C.ar      1 <0>        -0.1136
     29 C22       -12.0913    3.8249   -2.4965 C.3       1 <0>        -0.0644
     30 C23       -11.2710    4.2776   -3.7060 C.3       1 <0>        -0.1340
     31 C24       -12.1984    4.7795   -4.7826 C.2       1 <0>         0.5200
     32 O4        -13.3975    4.7754   -4.6004 O.2       1 <0>        -0.5329
     33 N5        -11.6954    5.2328   -5.9479 N.am      1 <0>        -0.7273
     34 C25       -12.5970    5.7206   -6.9945 C.3       1 <0>         0.1265
     35 C26       -11.7891    6.1666   -8.1859 C.2       1 <0>         0.4578
     36 O5        -10.5838    6.0852   -8.1631 O.2       1 <0>        -0.5025
     37 O6        -12.4084    6.6541   -9.2724 O.3       1 <0>        -0.3467
     38 C27       -11.5803    7.0578  -10.3648 C.3       1 <0>         0.0330
     39 H1         -3.2415   -4.8523   -2.8225 H         1 <0>         0.1020
     40 H2         -4.2715   -4.0922   -1.5857 H         1 <0>         0.0623
     41 H3         -3.6863   -3.1349   -2.9675 H         1 <0>         0.0531
     42 H4         -4.3756   -2.0224   -1.3294 H         1 <0>         0.1492
     43 H5         -2.5683    0.7689    1.3575 H         1 <0>         0.1370
     44 H6          1.1730   -1.3795   -0.9053 H         1 <0>         0.0429
     45 H7          1.7281   -3.0703   -0.9410 H         1 <0>         0.0912
     46 H8          0.4219   -2.5393   -2.0273 H         1 <0>         0.0431
     47 H9         -0.6456    1.5679    1.5668 H         1 <0>         0.0567
     48 H10        -1.2224    0.6097    2.9516 H         1 <0>         0.0579
     49 H11         0.5150    0.9493    2.7663 H         1 <0>         0.1034
     50 H12        -4.7496    1.1668    0.1206 H         1 <0>         0.4244
     51 H13        -7.1989   -3.5064   -0.1377 H         1 <0>         0.1764
     52 H14       -10.2090   -3.0313   -0.3866 H         1 <0>         0.1612
     53 H15       -11.5339   -0.7909   -0.5083 H         1 <0>         0.1813
     54 H16        -8.7953    2.0528    1.3354 H         1 <0>         0.1268
     55 H17        -9.4407    4.4265    1.2638 H         1 <0>         0.1325
     56 H18       -10.9549    5.2399   -0.4979 H         1 <0>         0.1305
     57 H19       -11.1801    1.3089   -2.1348 H         1 <0>         0.1302
     58 H20       -12.7679    3.0243   -2.7954 H         1 <0>         0.0844
     59 H21       -12.6700    4.6659   -2.1146 H         1 <0>         0.0870
     60 H22       -10.5944    5.0783   -3.4071 H         1 <0>         0.1003
     61 H23       -10.6923    3.4366   -4.0880 H         1 <0>         0.0983
     62 H24       -10.7365    5.2360   -6.0937 H         1 <0>         0.4134
     63 H25       -13.2736    4.9200   -7.2935 H         1 <0>         0.1154
     64 H26       -13.1757    6.5617   -6.6126 H         1 <0>         0.1157
     65 H27       -10.9030    7.8458  -10.0354 H         1 <0>         0.0640
     66 H28       -11.0009    6.2041  -10.7163 H         1 <0>         0.0640
     67 H29       -12.2053    7.4314  -11.1758 H         1 <0>         0.1077
@<TRIPOS>BOND
     1    1    2 1
     2    1   39 1
     3    1   40 1
     4    1   41 1
     5    2    3 1
     6    3    8 ar
     7    3    4 ar
     8    4    5 ar
     9    4   42 1
    10    5    6 ar
    11    5   13 1
    12    6    7 ar
    13    6   43 1
    14    7    8 ar
    15    7   11 1
    16    8    9 1
    17    9   10 1
    18   10   44 1
    19   10   45 1
    20   10   46 1
    21   11   12 1
    22   12   47 1
    23   12   48 1
    24   12   49 1
    25   13   14 1
    26   13   50 1
    27   14   22 ar
    28   14   15 ar
    29   15   16 ar
    30   16   17 ar
    31   16   51 1
    32   17   21 ar
    33   17   18 1
    34   18   19 2
    35   18   52 1
    36   19   20 1
    37   19   53 1
    38   20   21 1
    39   20   23 1
    40   21   22 ar
    41   23   28 ar
    42   23   24 ar
    43   24   25 ar
    44   24   54 1
    45   25   26 ar
    46   25   55 1
    47   26   27 ar
    48   26   56 1
    49   27   28 ar
    50   27   29 1
    51   28   57 1
    52   29   30 1
    53   29   58 1
    54   29   59 1
    55   30   31 1
    56   30   60 1
    57   30   61 1
    58   31   32 2
    59   31   33 am
    60   33   34 1
    61   33   62 1
    62   34   35 1
    63   34   63 1
    64   34   64 1
    65   35   36 2
    66   35   37 1
    67   37   38 1
    68   38   65 1
    69   38   66 1
    70   38   67 1
@<TRIPOS>MOLECULE
CHEMBL207834
   64    67     0     0     0
SMALL
USER_CHARGES

@<TRIPOS>ATOM
      1 C1         -3.4372   -3.9339   -2.2691 C.3       1 <0>         0.0263
      2 O1         -2.2736   -3.5696   -1.5240 O.3       1 <0>        -0.2983
      3 C2         -2.3505   -2.4385   -0.7729 C.ar      1 <0>         0.1693
      4 C3         -3.5231   -1.6998   -0.7502 C.ar      1 <0>        -0.2288
      5 C4         -3.6018   -0.5450    0.0165 C.ar      1 <0>         0.2422
      6 C5         -2.5063   -0.1295    0.7614 C.ar      1 <0>        -0.2642
      7 C6         -1.3330   -0.8671    0.7397 C.ar      1 <0>         0.1716
      8 C7         -1.2552   -2.0260   -0.0234 C.ar      1 <0>         0.0115
      9 O2         -0.1045   -2.7541   -0.0411 O.3       1 <0>        -0.3100
     10 C8          0.8620   -2.4157   -1.0378 C.3       1 <0>         0.0345
     11 O3         -0.2599   -0.4595    1.4688 O.3       1 <0>        -0.2985
     12 C9         -0.4122    0.7379    2.2337 C.3       1 <0>         0.0242
     13 N1         -4.7862    0.2011    0.0381 N.pl3     1 <0>        -0.6354
     14 C10        -6.0112   -0.4404   -0.0583 C.ar      1 <0>         0.5828
     15 N2         -6.0401   -1.7680   -0.0528 N.ar      1 <0>        -0.5563
     16 C11        -7.1829   -2.4265   -0.1424 C.ar      1 <0>         0.2448
     17 C12        -8.3670   -1.6975   -0.2436 C.ar      1 <0>        -0.2517
     18 C13        -9.7861   -2.0379   -0.3576 C.2       1 <0>        -0.1460
     19 C14       -10.4612   -0.8797   -0.4197 C.2       1 <0>         0.0401
     20 N3         -9.5848    0.1761   -0.3543 N.pl3     1 <0>        -0.4215
     21 C15        -8.3000   -0.2881   -0.2464 C.ar      1 <0>         0.3682
     22 N4         -7.1086    0.2923   -0.1470 N.ar      1 <0>        -0.5729
     23 C16        -9.9506    1.5281   -0.3927 C.ar      1 <0>         0.1299
     24 C17        -9.4596    2.4090    0.5619 C.ar      1 <0>        -0.0956
     25 C18        -9.8220    3.7410    0.5215 C.ar      1 <0>        -0.0975
     26 C19       -10.6730    4.1978   -0.4684 C.ar      1 <0>        -0.0997
     27 C20       -11.1639    3.3231   -1.4199 C.ar      1 <0>        -0.0659
     28 C21       -10.8001    1.9908   -1.3884 C.ar      1 <0>        -0.1030
     29 C22       -12.0913    3.8249   -2.4965 C.3       1 <0>        -0.0966
     30 C23       -11.2833    4.2708   -3.6879 C.2       1 <0>         0.5199
     31 O4        -10.0735    4.1892   -3.6650 O.2       1 <0>        -0.5086
     32 N5        -11.9052    4.7604   -4.7788 N.am      1 <0>        -0.7383
     33 C24       -11.1197    5.1939   -5.9369 C.3       1 <0>         0.0909
     34 C25       -12.0613    5.7034   -7.0300 C.3       1 <0>        -0.0193
     35 N6        -11.2737    6.1381   -8.1913 N.4       1 <0>        -0.6322
     36 H1         -3.2415   -4.8523   -2.8225 H         1 <0>         0.1026
     37 H2         -4.2715   -4.0922   -1.5857 H         1 <0>         0.0621
     38 H3         -3.6863   -3.1349   -2.9675 H         1 <0>         0.0518
     39 H4         -4.3756   -2.0224   -1.3294 H         1 <0>         0.1483
     40 H5         -2.5683    0.7689    1.3575 H         1 <0>         0.1371
     41 H6          1.1730   -1.3795   -0.9053 H         1 <0>         0.0431
     42 H7          1.7281   -3.0703   -0.9410 H         1 <0>         0.0925
     43 H8          0.4219   -2.5393   -2.0273 H         1 <0>         0.0429
     44 H9         -1.2224    0.6097    2.9516 H         1 <0>         0.0582
     45 H10         0.5150    0.9493    2.7663 H         1 <0>         0.1045
     46 H11        -0.6456    1.5679    1.5668 H         1 <0>         0.0563
     47 H12        -4.7496    1.1668    0.1206 H         1 <0>         0.4242
     48 H13        -7.1989   -3.5064   -0.1377 H         1 <0>         0.1778
     49 H14       -10.2090   -3.0313   -0.3866 H         1 <0>         0.1622
     50 H15       -11.5339   -0.7909   -0.5083 H         1 <0>         0.1805
     51 H16        -8.7953    2.0528    1.3354 H         1 <0>         0.1301
     52 H17        -9.4407    4.4265    1.2638 H         1 <0>         0.1352
     53 H18       -10.9549    5.2399   -0.4979 H         1 <0>         0.1273
     54 H19       -11.1801    1.3089   -2.1348 H         1 <0>         0.1270
     55 H20       -12.7679    3.0243   -2.7954 H         1 <0>         0.1109
     56 H21       -12.6700    4.6659   -2.1146 H         1 <0>         0.1134
     57 H22       -12.8728    4.8257   -4.7971 H         1 <0>         0.4097
     58 H23       -10.4431    5.9945   -5.6380 H         1 <0>         0.0900
     59 H24       -10.5410    4.3528   -6.3189 H         1 <0>         0.0893
     60 H25       -12.7379    4.9027   -7.3289 H         1 <0>         0.1416
     61 H26       -12.6400    6.5444   -6.6480 H         1 <0>         0.1419
     62 H27       -11.8947    6.4740   -8.9121 H         1 <0>         0.4447
     63 H28       -10.6474    6.8792   -7.9146 H         1 <0>         0.4394
     64 H29       -10.7380    5.3595   -8.5449 H         1 <0>         0.4394
@<TRIPOS>BOND
     1    1    2 1
     2    1   36 1
     3    1   37 1
     4    1   38 1
     5    2    3 1
     6    3    8 ar
     7    3    4 ar
     8    4    5 ar
     9    4   39 1
    10    5    6 ar
    11    5   13 1
    12    6    7 ar
    13    6   40 1
    14    7    8 ar
    15    7   11 1
    16    8    9 1
    17    9   10 1
    18   10   41 1
    19   10   42 1
    20   10   43 1
    21   11   12 1
    22   12   44 1
    23   12   45 1
    24   12   46 1
    25   13   14 1
    26   13   47 1
    27   14   22 ar
    28   14   15 ar
    29   15   16 ar
    30   16   17 ar
    31   16   48 1
    32   17   21 ar
    33   17   18 1
    34   18   19 2
    35   18   49 1
    36   19   20 1
    37   19   50 1
    38   20   21 1
    39   20   23 1
    40   21   22 ar
    41   23   28 ar
    42   23   24 ar
    43   24   25 ar
    44   24   51 1
    45   25   26 ar
    46   25   52 1
    47   26   27 ar
    48   26   53 1
    49   27   28 ar
    50   27   29 1
    51   28   54 1
    52   29   30 1
    53   29   55 1
    54   29   56 1
    55   30   31 2
    56   30   32 am
    57   32   33 1
    58   32   57 1
    59   33   34 1
    60   33   58 1
    61   33   59 1
    62   34   35 1
    63   34   60 1
    64   34   61 1
    65   35   62 1
    66   35   63 1
    67   35   64 1
@<TRIPOS>MOLECULE
CHEMBL206524
   55    58     0     0     0
SMALL
USER_CHARGES

@<TRIPOS>ATOM
      1 C1         -0.1470   -3.9244    4.1298 C.3       1 <0>         0.0258
      2 O1         -0.0925   -3.5635    2.7482 O.3       1 <0>        -0.2994
      3 C2          0.5679   -2.4165    2.4353 C.ar      1 <0>         0.1695
      4 C3          1.1549   -1.6593    3.4370 C.ar      1 <0>        -0.2284
      5 C4          1.8291   -0.4884    3.1178 C.ar      1 <0>         0.2451
      6 C5          1.9162   -0.0752    1.7952 C.ar      1 <0>        -0.2648
      7 C6          1.3296   -0.8313    0.7925 C.ar      1 <0>         0.1708
      8 C7          0.6591   -2.0063    1.1107 C.ar      1 <0>         0.0093
      9 O2          0.0871   -2.7524    0.1255 O.3       1 <0>        -0.3105
     10 C8         -1.2674   -2.4491   -0.2144 C.3       1 <0>         0.0343
     11 O3          1.4143   -0.4259   -0.5029 O.3       1 <0>        -0.2995
     12 C9          2.1228    0.7887   -0.7575 C.3       1 <0>         0.0243
     13 N1          2.4210    0.2763    4.1301 N.pl3     1 <0>        -0.6360
     14 C10         2.9657   -0.3478    5.2414 C.ar      1 <0>         0.5807
     15 N2          3.0183   -1.6744    5.2684 N.ar      1 <0>        -0.5581
     16 C11         3.5284   -2.3167    6.3052 C.ar      1 <0>         0.2428
     17 C12         4.0142   -1.5715    7.3787 C.ar      1 <0>        -0.2500
     18 C13         4.6332   -1.8920    8.6659 C.2       1 <0>        -0.1505
     19 C14         4.8877   -0.7249    9.2776 C.2       1 <0>         0.0454
     20 N3          4.4799    0.3182    8.4822 N.pl3     1 <0>        -0.4193
     21 C15         3.9429   -0.1637    7.3172 C.ar      1 <0>         0.3677
     22 N4          3.4190    0.4000    6.2336 N.ar      1 <0>        -0.5707
     23 C16         4.5955    1.6747    8.8135 C.ar      1 <0>         0.1254
     24 C17         5.1545    2.5668    7.9079 C.ar      1 <0>        -0.1021
     25 C18         5.2671    3.9032    8.2373 C.ar      1 <0>        -0.0986
     26 C19         4.8239    4.3534    9.4676 C.ar      1 <0>        -0.1076
     27 C20         4.2673    3.4675   10.3715 C.ar      1 <0>        -0.0705
     28 C21         4.1463    2.1306   10.0454 C.ar      1 <0>        -0.1122
     29 C22         3.7861    3.9621   11.7112 C.3       1 <0>        -0.0758
     30 C23         2.3175    4.3777   11.6039 C.3       1 <0>        -0.0214
     31 C24         1.8474    4.8608   12.9125 C.1       1 <0>         0.2010
     32 N5          1.4846    5.2337   13.9224 N.1       1 <0>        -0.4296
     33 H1         -0.6472   -3.1358    4.6919 H         1 <0>         0.0532
     34 H2         -0.7009   -4.8567    4.2402 H         1 <0>         0.1020
     35 H3          0.8656   -4.0561    4.5112 H         1 <0>         0.0623
     36 H4          1.0876   -1.9801    4.4660 H         1 <0>         0.1492
     37 H5          2.4408    0.8358    1.5477 H         1 <0>         0.1371
     38 H6         -1.6000   -3.1151   -1.0107 H         1 <0>         0.0912
     39 H7         -1.9012   -2.5856    0.6618 H         1 <0>         0.0432
     40 H8         -1.3341   -1.4154   -0.5536 H         1 <0>         0.0430
     41 H9          3.1524    0.6876   -0.4144 H         1 <0>         0.0579
     42 H10         2.1151    0.9962   -1.8276 H         1 <0>         0.1034
     43 H11         1.6411    1.6087   -0.2249 H         1 <0>         0.0568
     44 H12         2.4498    1.2429    4.0538 H         1 <0>         0.4246
     45 H13         3.5675   -3.3959    6.3205 H         1 <0>         0.1765
     46 H14         4.8443   -2.8790    9.0502 H         1 <0>         0.1611
     47 H15         5.3448   -0.6211   10.2506 H         1 <0>         0.1813
     48 H16         5.5011    2.2159    6.9471 H         1 <0>         0.1272
     49 H17         5.7021    4.5974    7.5336 H         1 <0>         0.1332
     50 H18         4.9131    5.3989    9.7229 H         1 <0>         0.1323
     51 H19         3.7070    1.4400   10.7500 H         1 <0>         0.1320
     52 H20         3.8854    3.1663   12.4494 H         1 <0>         0.0852
     53 H21         4.3848    4.8195   12.0184 H         1 <0>         0.0879
     54 H22         2.2181    5.1735   10.8657 H         1 <0>         0.1122
     55 H23         1.7187    3.5203   11.2966 H         1 <0>         0.1101
@<TRIPOS>BOND
     1    1    2 1
     2    1   33 1
     3    1   34 1
     4    1   35 1
     5    2    3 1
     6    3    8 ar
     7    3    4 ar
     8    4    5 ar
     9    4   36 1
    10    5    6 ar
    11    5   13 1
    12    6    7 ar
    13    6   37 1
    14    7    8 ar
    15    7   11 1
    16    8    9 1
    17    9   10 1
    18   10   38 1
    19   10   39 1
    20   10   40 1
    21   11   12 1
    22   12   41 1
    23   12   42 1
    24   12   43 1
    25   13   14 1
    26   13   44 1
    27   14   22 ar
    28   14   15 ar
    29   15   16 ar
    30   16   17 ar
    31   16   45 1
    32   17   21 ar
    33   17   18 1
    34   18   19 2
    35   18   46 1
    36   19   20 1
    37   19   47 1
    38   20   21 1
    39   20   23 1
    40   21   22 ar
    41   23   28 ar
    42   23   24 ar
    43   24   25 ar
    44   24   48 1
    45   25   26 ar
    46   25   49 1
    47   26   27 ar
    48   26   50 1
    49   27   28 ar
    50   27   29 1
    51   28   51 1
    52   29   30 1
    53   29   52 1
    54   29   53 1
    55   30   31 1
    56   30   54 1
    57   30   55 1
    58   31   32 3
@<TRIPOS>MOLECULE
CHEMBL207232
   64    67     0     0     0
SMALL
USER_CHARGES

@<TRIPOS>ATOM
      1 C1         -3.4372   -3.9339   -2.2691 C.3       1 <0>         0.0257
      2 O1         -2.2736   -3.5696   -1.5240 O.3       1 <0>        -0.2995
      3 C2         -2.3505   -2.4385   -0.7729 C.ar      1 <0>         0.1696
      4 C3         -3.5231   -1.6998   -0.7502 C.ar      1 <0>        -0.2286
      5 C4         -3.6018   -0.5450    0.0165 C.ar      1 <0>         0.2464
      6 C5         -2.5063   -0.1295    0.7614 C.ar      1 <0>        -0.2651
      7 C6         -1.3330   -0.8671    0.7397 C.ar      1 <0>         0.1709
      8 C7         -1.2552   -2.0260   -0.0234 C.ar      1 <0>         0.0086
      9 O2         -0.1045   -2.7541   -0.0411 O.3       1 <0>        -0.3105
     10 C8          0.8620   -2.4157   -1.0378 C.3       1 <0>         0.0343
     11 O3         -0.2599   -0.4595    1.4688 O.3       1 <0>        -0.2997
     12 C9         -0.4122    0.7379    2.2337 C.3       1 <0>         0.0243
     13 N1         -4.7862    0.2011    0.0381 N.pl3     1 <0>        -0.6363
     14 C10        -6.0112   -0.4404   -0.0583 C.ar      1 <0>         0.5802
     15 N2         -6.0401   -1.7680   -0.0528 N.ar      1 <0>        -0.5582
     16 C11        -7.1829   -2.4265   -0.1424 C.ar      1 <0>         0.2419
     17 C12        -8.3670   -1.6975   -0.2436 C.ar      1 <0>        -0.2501
     18 C13        -9.7861   -2.0379   -0.3576 C.2       1 <0>        -0.1517
     19 C14       -10.4612   -0.8797   -0.4197 C.2       1 <0>         0.0456
     20 N3         -9.5848    0.1761   -0.3543 N.pl3     1 <0>        -0.4179
     21 C15        -8.3000   -0.2881   -0.2464 C.ar      1 <0>         0.3685
     22 N4         -7.1086    0.2923   -0.1470 N.ar      1 <0>        -0.5690
     23 C16        -9.9506    1.5281   -0.3927 C.ar      1 <0>         0.1236
     24 C17        -9.4596    2.4090    0.5619 C.ar      1 <0>        -0.0992
     25 C18        -9.8220    3.7410    0.5215 C.ar      1 <0>        -0.0997
     26 C19       -10.6730    4.1978   -0.4684 C.ar      1 <0>        -0.0978
     27 C20       -11.1639    3.3231   -1.4199 C.ar      1 <0>        -0.0550
     28 C21       -10.8001    1.9908   -1.3884 C.ar      1 <0>        -0.1012
     29 C22       -12.0913    3.8249   -2.4965 C.3       1 <0>        -0.0991
     30 C23       -11.2833    4.2708   -3.6879 C.2       1 <0>         0.5191
     31 O4        -10.0735    4.1892   -3.6650 O.2       1 <0>        -0.5216
     32 N5        -11.9052    4.7604   -4.7788 N.am      1 <0>        -0.7271
     33 C24       -11.1197    5.1939   -5.9369 C.3       1 <0>         0.1271
     34 C25       -12.0472    5.6957   -7.0135 C.2       1 <0>         0.4586
     35 O5        -13.2417    5.6917   -6.8320 O.2       1 <0>        -0.5024
     36 O6        -11.5462    6.1472   -8.1741 O.3       1 <0>        -0.3468
     37 C26       -12.4832    6.6077   -9.1498 C.3       1 <0>         0.0330
     38 H1         -3.2415   -4.8523   -2.8225 H         1 <0>         0.1019
     39 H2         -4.2715   -4.0922   -1.5857 H         1 <0>         0.0623
     40 H3         -3.6863   -3.1349   -2.9675 H         1 <0>         0.0532
     41 H4         -4.3756   -2.0224   -1.3294 H         1 <0>         0.1492
     42 H5         -2.5683    0.7689    1.3575 H         1 <0>         0.1371
     43 H6          0.4219   -2.5393   -2.0273 H         1 <0>         0.0431
     44 H7          1.1730   -1.3795   -0.9053 H         1 <0>         0.0428
     45 H8          1.7281   -3.0703   -0.9410 H         1 <0>         0.0910
     46 H9          0.5150    0.9493    2.7663 H         1 <0>         0.1032
     47 H10        -0.6456    1.5679    1.5668 H         1 <0>         0.0568
     48 H11        -1.2224    0.6097    2.9516 H         1 <0>         0.0578
     49 H12        -4.7496    1.1668    0.1206 H         1 <0>         0.4248
     50 H13        -7.1989   -3.5064   -0.1377 H         1 <0>         0.1763
     51 H14       -10.2090   -3.0313   -0.3866 H         1 <0>         0.1610
     52 H15       -11.5339   -0.7909   -0.5083 H         1 <0>         0.1808
     53 H16        -8.7953    2.0528    1.3354 H         1 <0>         0.1273
     54 H17        -9.4407    4.4265    1.2638 H         1 <0>         0.1332
     55 H18       -10.9549    5.2399   -0.4979 H         1 <0>         0.1285
     56 H19       -11.1801    1.3089   -2.1348 H         1 <0>         0.1281
     57 H20       -12.7679    3.0243   -2.7954 H         1 <0>         0.1094
     58 H21       -12.6700    4.6659   -2.1146 H         1 <0>         0.1120
     59 H22       -12.8728    4.8257   -4.7971 H         1 <0>         0.4134
     60 H23       -10.4431    5.9945   -5.6380 H         1 <0>         0.1154
     61 H24       -10.5410    4.3528   -6.3189 H         1 <0>         0.1147
     62 H25       -13.1573    5.7944   -9.4184 H         1 <0>         0.0641
     63 H26       -13.0594    7.4360   -8.7375 H         1 <0>         0.0642
     64 H27       -11.9477    6.9440  -10.0376 H         1 <0>         0.1077
@<TRIPOS>BOND
     1    1    2 1
     2    1   38 1
     3    1   39 1
     4    1   40 1
     5    2    3 1
     6    3    8 ar
     7    3    4 ar
     8    4    5 ar
     9    4   41 1
    10    5    6 ar
    11    5   13 1
    12    6    7 ar
    13    6   42 1
    14    7    8 ar
    15    7   11 1
    16    8    9 1
    17    9   10 1
    18   10   43 1
    19   10   44 1
    20   10   45 1
    21   11   12 1
    22   12   46 1
    23   12   47 1
    24   12   48 1
    25   13   14 1
    26   13   49 1
    27   14   22 ar
    28   14   15 ar
    29   15   16 ar
    30   16   17 ar
    31   16   50 1
    32   17   21 ar
    33   17   18 1
    34   18   19 2
    35   18   51 1
    36   19   20 1
    37   19   52 1
    38   20   21 1
    39   20   23 1
    40   21   22 ar
    41   23   28 ar
    42   23   24 ar
    43   24   25 ar
    44   24   53 1
    45   25   26 ar
    46   25   54 1
    47   26   27 ar
    48   26   55 1
    49   27   28 ar
    50   27   29 1
    51   28   56 1
    52   29   30 1
    53   29   57 1
    54   29   58 1
    55   30   31 2
    56   30   32 am
    57   32   33 1
    58   32   59 1
    59   33   34 1
    60   33   60 1
    61   33   61 1
    62   34   35 2
    63   34   36 1
    64   36   37 1
    65   37   62 1
    66   37   63 1
    67   37   64 1
@<TRIPOS>MOLECULE
CHEMBL535
   57    59     0     0     0
SMALL
USER_CHARGES

@<TRIPOS>ATOM
      1 C1          0.1489    2.0884    0.1150 C.3       1 <0>        -0.1876
      2 C2          0.1348    0.5603    0.1888 C.3       1 <0>        -0.0191
      3 N1         -1.2520    0.0881    0.2979 N.4       1 <0>        -0.3822
      4 C3         -1.9779    0.4111   -0.9377 C.3       1 <0>        -0.0142
      5 C4         -3.4549    0.0484   -0.7712 C.3       1 <0>        -0.1895
      6 C5         -1.2593   -1.3663    0.5041 C.3       1 <0>        -0.0265
      7 C6         -0.6131   -1.6936    1.8518 C.3       1 <0>         0.0952
      8 N2         -0.6203   -3.1440    2.0575 N.am      1 <0>        -0.7289
      9 C7         -0.0988   -3.6675    3.1846 C.2       1 <0>         0.6111
     10 O1          0.3779   -2.9358    4.0309 O.2       1 <0>        -0.5184
     11 C8         -0.1061   -5.1270    3.3915 C.2       1 <0>        -0.2420
     12 C9          0.9071   -6.0320    3.0089 C.2       1 <0>        -0.0577
     13 C10         0.4868   -7.2892    3.3960 C.2       1 <0>        -0.0075
     14 N3         -0.7476   -7.1595    3.9982 N.pl3     1 <0>        -0.4910
     15 H1         -1.2731   -7.8879    4.3645 H         1 <0>         0.4270
     16 C11        -1.1044   -5.8642    4.0022 C.2       1 <0>         0.1158
     17 C12        -2.3825   -5.3072    4.5743 C.3       1 <0>        -0.0999
     18 C13         1.1957   -8.4957    3.2079 C.2       1 <0>         0.0729
     19 C14         0.5100   -9.6674    2.9570 C.2       1 <0>        -0.1889
     20 C15         1.0648  -11.0377    2.8871 C.ar      1 <0>        -0.0736
     21 C16         2.3472  -11.5557    3.0375 C.ar      1 <0>        -0.1000
     22 C17         2.5553  -12.9162    2.9116 C.ar      1 <0>         0.0861
     23 C18         1.4888  -13.7593    2.6366 C.ar      1 <0>        -0.1139
     24 C19         0.2139  -13.2531    2.4856 C.ar      1 <0>        -0.1021
     25 C20        -0.0144  -11.8871    2.6092 C.ar      1 <0>         0.1282
     26 N4         -1.1765  -11.1301    2.5069 N.am      1 <0>        -0.6466
     27 C21        -0.9294   -9.8245    2.7079 C.2       1 <0>         0.5595
     28 O2         -1.7538   -8.9280    2.6842 O.2       1 <0>        -0.5156
     29 F1          3.7984  -13.4252    3.0561 F         1 <0>        -0.1318
     30 C22         2.1990   -5.6919    2.3116 C.3       1 <0>        -0.0931
     31 H2          1.1793    2.4435    0.1331 H         1 <0>         0.1076
     32 H3         -0.3308    2.4121   -0.8087 H         1 <0>         0.0811
     33 H4         -0.3916    2.4984    0.9682 H         1 <0>         0.0809
     34 H5          0.5888    0.1488   -0.7126 H         1 <0>         0.1317
     35 H6          0.6996    0.2334    1.0619 H         1 <0>         0.1337
     36 H7         -1.8867    1.4775   -1.1444 H         1 <0>         0.1351
     37 H8         -1.5554   -0.1571   -1.7664 H         1 <0>         0.1307
     38 H9         -3.5537   -1.0316   -0.6617 H         1 <0>         0.0802
     39 H10        -3.8523    0.5414    0.1160 H         1 <0>         0.0808
     40 H11        -4.0109    0.3769   -1.6492 H         1 <0>         0.1074
     41 H12        -2.2871   -1.7292    0.4963 H         1 <0>         0.1397
     42 H13        -0.6973   -1.8494   -0.2952 H         1 <0>         0.1376
     43 H14         0.4147   -1.3306    1.8596 H         1 <0>         0.0893
     44 H15        -1.1751   -1.2105    2.6511 H         1 <0>         0.0890
     45 H16        -1.0005   -3.7277    1.3824 H         1 <0>         0.4099
     46 H17        -3.1529   -5.3000    3.8032 H         1 <0>         0.0840
     47 H18        -2.7087   -5.9289    5.4080 H         1 <0>         0.0782
     48 H19        -2.2103   -4.2898    4.9254 H         1 <0>         0.0840
     49 H20         2.2744   -8.5020    3.2604 H         1 <0>         0.1589
     50 H21         3.1765  -10.8977    3.2512 H         1 <0>         0.1436
     51 H22         1.6578  -14.8215    2.5394 H         1 <0>         0.1485
     52 H23        -0.6084  -13.9196    2.2712 H         1 <0>         0.1415
     53 H24        -2.0541  -11.4980    2.3189 H         1 <0>         0.4217
     54 H25         2.9686   -5.4822    3.0545 H         1 <0>         0.0785
     55 H26         2.5107   -6.5337    1.6932 H         1 <0>         0.0726
     56 H27         2.0522   -4.8138    1.6827 H         1 <0>         0.0634
     57 H28        -1.7009    0.5410    1.0799 H         1 <0>         0.4247
@<TRIPOS>BOND
     1    1    2 1
     2    1   31 1
     3    1   32 1
     4    1   33 1
     5    2    3 1
     6    2   34 1
     7    2   35 1
     8    3    4 1
     9    3    6 1
    10    3   57 1
    11    4    5 1
    12    4   36 1
    13    4   37 1
    14    5   38 1
    15    5   39 1
    16    5   40 1
    17    6    7 1
    18    6   41 1
    19    6   42 1
    20    7    8 1
    21    7   43 1
    22    7   44 1
    23    8    9 am
    24    8   45 1
    25    9   10 2
    26    9   11 1
    27   11   16 2
    28   11   12 1
    29   12   13 2
    30   12   30 1
    31   13   14 1
    32   13   18 1
    33   14   15 1
    34   14   16 1
    35   16   17 1
    36   17   46 1
    37   17   47 1
    38   17   48 1
    39   18   19 2
    40   18   49 1
    41   19   27 1
    42   19   20 1
    43   20   25 ar
    44   20   21 ar
    45   21   22 ar
    46   21   50 1
    47   22   23 ar
    48   22   29 1
    49   23   24 ar
    50   23   51 1
    51   24   25 ar
    52   24   52 1
    53   25   26 1
    54   26   27 am
    55   26   53 1
    56   27   28 2
    57   30   54 1
    58   30   55 1
    59   30   56 1
@<TRIPOS>MOLECULE
CHEMBL564417
   68    72     0     0     0
SMALL
USER_CHARGES

@<TRIPOS>ATOM
      1 C1         -0.0757    2.0300    0.1795 C.3       1 <0>        -0.1160
      2 C2         -0.1033    0.5409   -0.0504 C.ar      1 <0>        -0.0273
      3 C3         -0.1472    0.0419   -1.3353 C.ar      1 <0>        -0.1783
      4 C4         -0.1730   -1.3332   -1.5566 C.ar      1 <0>         0.2198
      5 C5         -0.1544   -2.2131   -0.4901 C.ar      1 <0>        -0.1740
      6 C6         -0.1095   -1.7177    0.8164 C.ar      1 <0>         0.1180
      7 C7         -0.0789   -0.3285    1.0297 C.ar      1 <0>        -0.0026
      8 N1         -0.0314   -0.1490    2.4030 N.pl3     1 <0>        -0.5822
      9 H1         -0.0051    0.6995    2.8724 H         1 <0>         0.4303
     10 C8         -0.0291   -1.3947    2.9736 C.2       1 <0>         0.3940
     11 N2         -0.0825   -2.3124    2.0350 N.2       1 <0>        -0.5390
     12 C9          0.0149   -1.6639    4.4202 C.2       1 <0>        -0.3014
     13 C10         0.1358   -2.9763    4.8991 C.2       1 <0>         0.3582
     14 C11         0.1745   -3.1888    6.2902 C.2       1 <0>        -0.2727
     15 C12         0.0957   -2.1384    7.1354 C.2       1 <0>         0.1844
     16 N3         -0.0219   -0.8664    6.6716 N.am      1 <0>        -0.6206
     17 H2         -0.0766   -0.1329    7.3039 H         1 <0>         0.4191
     18 C13        -0.0580   -0.6042    5.3519 C.2       1 <0>         0.5566
     19 O1         -0.1584    0.5468    4.9608 O.2       1 <0>        -0.5658
     20 N4          0.2147   -4.0386    4.0239 N.pl3     1 <0>        -0.6818
     21 C14         0.2185   -5.4111    4.5364 C.3       1 <0>         0.0792
     22 C15         0.3130   -6.3922    3.3662 C.3       1 <0>         0.1387
     23 H3         -0.4933   -6.1941    2.6599 H         1 <0>         0.1244
     24 C16         0.1934   -7.8029    3.8824 C.ar      1 <0>        -0.1119
     25 C17         1.3317   -8.5345    4.1650 C.ar      1 <0>        -0.0975
     26 C18         1.2221   -9.8285    4.6386 C.ar      1 <0>        -0.1096
     27 C19        -0.0259  -10.3918    4.8299 C.ar      1 <0>        -0.1026
     28 C20        -1.1647   -9.6614    4.5478 C.ar      1 <0>        -0.1063
     29 C21        -1.0556   -8.3640    4.0791 C.ar      1 <0>        -0.0280
     30 Cl1        -2.4857   -7.4435    3.7307 Cl        1 <0>        -0.0587
     31 O2          1.5719   -6.2304    2.7095 O.3       1 <0>        -0.5402
     32 N5         -0.2184   -1.8267   -2.8651 N.pl3     1 <0>        -0.6319
     33 C22        -0.3622   -0.9158   -4.0109 C.3       1 <0>         0.1286
     34 C23         0.7354   -1.2387   -5.0302 C.3       1 <0>         0.0404
     35 N6          0.6847   -2.6685   -5.3633 N.3       1 <0>        -0.5342
     36 C24         0.9646   -3.5003   -4.1853 C.3       1 <0>         0.0326
     37 C25        -0.1175   -3.2696   -3.1317 C.3       1 <0>         0.1277
     38 C26         1.6057   -2.9859   -6.4628 C.3       1 <0>         0.0589
     39 C27         1.3487   -4.4143   -6.9471 C.3       1 <0>        -0.0243
     40 C28         2.2716   -4.7324   -8.0488 C.1       1 <0>         0.2041
     41 N7          2.9839   -4.9779   -8.8991 N.1       1 <0>        -0.4319
     42 H4          0.9580    2.3753    0.2006 H         1 <0>         0.0715
     43 H5         -0.6101    2.5322   -0.6269 H         1 <0>         0.0716
     44 H6         -0.5550    2.2597    1.1312 H         1 <0>         0.0606
     45 H7         -0.1621    0.7211   -2.1748 H         1 <0>         0.1285
     46 H8         -0.1749   -3.2786   -0.6657 H         1 <0>         0.1260
     47 H9          0.2669   -4.1913    6.6812 H         1 <0>         0.1524
     48 H10         0.1264   -2.3127    8.2008 H         1 <0>         0.1728
     49 H11         0.2678   -3.8774    3.0689 H         1 <0>         0.4351
     50 H12         1.0743   -5.5500    5.1970 H         1 <0>         0.0765
     51 H13        -0.7020   -5.5944    5.0907 H         1 <0>         0.0837
     52 H14         2.3069   -8.0951    4.0154 H         1 <0>         0.1330
     53 H15         2.1118  -10.3998    4.8588 H         1 <0>         0.1329
     54 H16        -0.1109  -11.4030    5.1996 H         1 <0>         0.1351
     55 H17        -2.1395  -10.1016    4.6970 H         1 <0>         0.1371
     56 H18         2.3363   -6.3915    3.2794 H         1 <0>         0.3746
     57 H19        -1.3409   -1.0562   -4.4698 H         1 <0>         0.0700
     58 H20        -0.2573    0.1156   -3.6741 H         1 <0>         0.0864
     59 H21         0.5780   -0.6490   -5.9334 H         1 <0>         0.0869
     60 H22         1.7096   -0.9988   -4.6040 H         1 <0>         0.0412
     61 H23         0.9733   -4.5509   -4.4756 H         1 <0>         0.0896
     62 H24         1.9355   -3.2290   -3.7708 H         1 <0>         0.0419
     63 H25         0.1491   -3.7937   -2.2139 H         1 <0>         0.0881
     64 H26        -1.0722   -3.6407   -3.5045 H         1 <0>         0.0693
     65 H27         1.4440   -2.2889   -7.2850 H         1 <0>         0.0862
     66 H28         2.6340   -2.9009   -6.1114 H         1 <0>         0.0443
     67 H29         1.5105   -5.1114   -6.1249 H         1 <0>         0.1087
     68 H30         0.3204   -4.4993   -7.2985 H         1 <0>         0.1197
@<TRIPOS>BOND
     1    1    2 1
     2    1   42 1
     3    1   43 1
     4    1   44 1
     5    2    7 ar
     6    2    3 ar
     7    3    4 ar
     8    3   45 1
     9    4    5 ar
    10    4   32 1
    11    5    6 ar
    12    5   46 1
    13    6   11 1
    14    6    7 ar
    15    7    8 1
    16    8    9 1
    17    8   10 1
    18   10   11 2
    19   10   12 1
    20   12   18 1
    21   12   13 2
    22   13   14 1
    23   13   20 1
    24   14   15 2
    25   14   47 1
    26   15   16 1
    27   15   48 1
    28   16   17 1
    29   16   18 am
    30   18   19 2
    31   20   21 1
    32   20   49 1
    33   21   22 1
    34   21   50 1
    35   21   51 1
    36   22   23 1
    37   22   24 1
    38   22   31 1
    39   24   29 ar
    40   24   25 ar
    41   25   26 ar
    42   25   52 1
    43   26   27 ar
    44   26   53 1
    45   27   28 ar
    46   27   54 1
    47   28   29 ar
    48   28   55 1
    49   29   30 1
    50   31   56 1
    51   32   37 1
    52   32   33 1
    53   33   34 1
    54   33   57 1
    55   33   58 1
    56   34   35 1
    57   34   59 1
    58   34   60 1
    59   35   36 1
    60   35   38 1
    61   36   37 1
    62   36   61 1
    63   36   62 1
    64   37   63 1
    65   37   64 1
    66   38   39 1
    67   38   65 1
    68   38   66 1
    69   39   40 1
    70   39   67 1
    71   39   68 1
    72   40   41 3
@<TRIPOS>MOLECULE
CHEMBL564417__1
   69    73     0     0     0
SMALL
USER_CHARGES

@<TRIPOS>ATOM
      1 C1         -0.0800    2.0513    0.1887 C.3       1 <0>        -0.1221
      2 C2         -0.1076    0.5637   -0.0505 C.ar      1 <0>        -0.0177
      3 C3         -0.1529    0.0726   -1.3384 C.ar      1 <0>        -0.1779
      4 C4         -0.1787   -1.3011   -1.5681 C.ar      1 <0>         0.1963
      5 C5         -0.1587   -2.1876   -0.5072 C.ar      1 <0>        -0.1578
      6 C6         -0.1124   -1.7003    0.8024 C.ar      1 <0>         0.1170
      7 C7         -0.0818   -0.3124    1.0242 C.ar      1 <0>         0.0095
      8 N1         -0.0328   -0.1414    2.3986 N.pl3     1 <0>        -0.5809
      9 H1         -0.0061    0.7041    2.8732 H         1 <0>         0.4350
     10 C8         -0.0296   -1.3906    2.9614 C.2       1 <0>         0.4123
     11 N2         -0.0839   -2.3025    2.0172 N.2       1 <0>        -0.5413
     12 C9          0.0161   -1.6687    4.4062 C.2       1 <0>        -0.3126
     13 C10         0.1382   -2.9840    4.8769 C.2       1 <0>         0.3661
     14 C11         0.1786   -3.2052    6.2666 C.2       1 <0>        -0.2775
     15 C12         0.1001   -2.1601    7.1184 C.2       1 <0>         0.1939
     16 N3         -0.0187   -0.8853    6.6626 N.am      1 <0>        -0.6197
     17 H2         -0.0731   -0.1557    7.2995 H         1 <0>         0.4220
     18 C13        -0.0563   -0.6149    5.3446 C.2       1 <0>         0.5591
     19 O1         -0.1578    0.5384    4.9607 O.2       1 <0>        -0.5656
     20 N4          0.2168   -4.0409    3.9951 N.pl3     1 <0>        -0.6811
     21 C14         0.2215   -5.4165    4.4990 C.3       1 <0>         0.0765
     22 C15         0.3154   -6.3903    3.3226 C.3       1 <0>         0.1419
     23 H3         -0.4916   -6.1881    2.6183 H         1 <0>         0.1217
     24 C16         0.1968   -7.8042    3.8302 C.ar      1 <0>        -0.1159
     25 C17         1.3356   -8.5372    4.1072 C.ar      1 <0>        -0.0974
     26 C18         1.2270   -9.8340    4.5728 C.ar      1 <0>        -0.1078
     27 C19        -0.0207  -10.3990    4.7618 C.ar      1 <0>        -0.0998
     28 C20        -1.1600   -9.6673    4.4852 C.ar      1 <0>        -0.1056
     29 C21        -1.0519   -8.3670    4.0245 C.ar      1 <0>        -0.0282
     30 Cl1        -2.4826   -7.4450    3.6831 Cl        1 <0>        -0.0620
     31 O2          1.5736   -6.2239    2.6658 O.3       1 <0>        -0.5441
     32 N5         -0.2255   -1.7865   -2.8796 N.pl3     1 <0>        -0.6435
     33 C22        -0.1316   -3.2283   -3.1564 C.3       1 <0>         0.1007
     34 C23        -1.2868   -3.6212   -4.0831 C.3       1 <0>        -0.0223
     35 N6         -1.2633   -2.7715   -5.2804 N.4       1 <0>        -0.3807
     36 C24        -1.5145   -1.3739   -4.9067 C.3       1 <0>        -0.0321
     37 C25        -0.3763   -0.8700   -4.0204 C.3       1 <0>         0.1029
     38 C26        -2.3018   -3.2202   -6.2176 C.3       1 <0>        -0.0069
     39 C27        -2.1979   -2.4180   -7.5162 C.3       1 <0>        -0.0415
     40 C28        -3.2384   -2.8675   -8.4553 C.1       1 <0>         0.1800
     41 N7         -4.0415   -3.2145   -9.1800 N.1       1 <0>        -0.3710
     42 H4          0.9536    2.3966    0.2107 H         1 <0>         0.0774
     43 H5         -0.6154    2.5583   -0.6141 H         1 <0>         0.0741
     44 H6         -0.5582    2.2750    1.1423 H         1 <0>         0.0652
     45 H7         -0.1688    0.7570   -2.1737 H         1 <0>         0.1285
     46 H8         -0.1792   -3.2520   -0.6893 H         1 <0>         0.1264
     47 H9          0.2719   -4.2100    6.6513 H         1 <0>         0.1548
     48 H10         0.1320   -2.3410    8.1827 H         1 <0>         0.1763
     49 H11         0.2690   -3.8737    3.0410 H         1 <0>         0.4328
     50 H12         1.0779   -5.5591    5.1580 H         1 <0>         0.0793
     51 H13        -0.6984   -5.6037    5.0530 H         1 <0>         0.0858
     52 H14         2.3105   -8.0965    3.9595 H         1 <0>         0.1331
     53 H15         2.1170  -10.4064    4.7888 H         1 <0>         0.1346
     54 H16        -0.1050  -11.4125    5.1253 H         1 <0>         0.1370
     55 H17        -2.1345  -10.1089    4.6325 H         1 <0>         0.1381
     56 H18         2.3386   -6.3883    3.2340 H         1 <0>         0.3774
     57 H19         0.8190   -3.4466   -3.6431 H         1 <0>         0.0880
     58 H20        -0.2050   -3.7860   -2.2228 H         1 <0>         0.1292
     59 H21        -1.1784   -4.6655   -4.3764 H         1 <0>         0.1422
     60 H22        -2.2338   -3.4868   -3.5605 H         1 <0>         0.1350
     61 H23        -1.5740   -0.7621   -5.8069 H         1 <0>         0.1428
     62 H24        -2.4547   -1.3074   -4.3592 H         1 <0>         0.1364
     63 H25        -0.6114    0.1306   -3.6578 H         1 <0>         0.1272
     64 H26         0.5492   -0.8462   -4.5959 H         1 <0>         0.0874
     65 H27        -2.1636   -4.2797   -6.4330 H         1 <0>         0.1427
     66 H28        -3.2845   -3.0651   -5.7723 H         1 <0>         0.1398
     67 H29        -2.3361   -1.3584   -7.3008 H         1 <0>         0.1295
     68 H30        -1.2151   -2.5730   -7.9615 H         1 <0>         0.1320
     69 H31        -0.3599   -2.8426   -5.7241 H         1 <0>         0.4254
@<TRIPOS>BOND
     1    1    2 1
     2    1   42 1
     3    1   43 1
     4    1   44 1
     5    2    7 ar
     6    2    3 ar
     7    3    4 ar
     8    3   45 1
     9    4    5 ar
    10    4   32 1
    11    5    6 ar
    12    5   46 1
    13    6   11 1
    14    6    7 ar
    15    7    8 1
    16    8    9 1
    17    8   10 1
    18   10   11 2
    19   10   12 1
    20   12   18 1
    21   12   13 2
    22   13   14 1
    23   13   20 1
    24   14   15 2
    25   14   47 1
    26   15   16 1
    27   15   48 1
    28   16   17 1
    29   16   18 am
    30   18   19 2
    31   20   21 1
    32   20   49 1
    33   21   22 1
    34   21   50 1
    35   21   51 1
    36   22   23 1
    37   22   24 1
    38   22   31 1
    39   24   29 ar
    40   24   25 ar
    41   25   26 ar
    42   25   52 1
    43   26   27 ar
    44   26   53 1
    45   27   28 ar
    46   27   54 1
    47   28   29 ar
    48   28   55 1
    49   29   30 1
    50   31   56 1
    51   32   37 1
    52   32   33 1
    53   33   34 1
    54   33   57 1
    55   33   58 1
    56   34   35 1
    57   34   59 1
    58   34   60 1
    59   35   36 1
    60   35   38 1
    61   35   69 1
    62   36   37 1
    63   36   61 1
    64   36   62 1
    65   37   63 1
    66   37   64 1
    67   38   39 1
    68   38   65 1
    69   38   66 1
    70   39   40 1
    71   39   67 1
    72   39   68 1
    73   40   41 3
@<TRIPOS>MOLECULE
CHEMBL201511
   46    49     0     0     0
SMALL
USER_CHARGES

@<TRIPOS>ATOM
      1 C1         -0.0173    1.4248    0.0099 C.3       1 <0>         0.0219
      2 O1          0.0021   -0.0041    0.0020 O.3       1 <0>        -0.2989
      3 C2          0.6262   -0.6188    1.0422 C.ar      1 <0>         0.1537
      4 C3          1.2002    0.1373    2.0476 C.ar      1 <0>        -0.2002
      5 C4          1.8411   -0.4952    3.1166 C.ar      1 <0>         0.0434
      6 C5          1.8998   -1.8907    3.1658 C.ar      1 <0>        -0.2051
      7 C6          1.3241   -2.6416    2.1574 C.ar      1 <0>         0.1508
      8 C7          0.6817   -2.0088    1.0966 C.ar      1 <0>         0.0412
      9 O2          0.1118   -2.7500    0.1089 O.3       1 <0>        -0.3119
     10 C8          0.9367   -3.0851   -1.0089 C.3       1 <0>         0.0348
     11 O3          1.3808   -3.9995    2.2046 O.3       1 <0>        -0.2985
     12 C9          2.0505   -4.5823    3.3244 C.3       1 <0>         0.0232
     13 C10         2.4552    0.3092    4.1913 C.2       1 <0>        -0.0878
     14 C11         2.0736    0.3479    5.5262 C.2       1 <0>        -0.0050
     15 C12         2.9966    1.2998    6.1881 C.2       1 <0>         0.5546
     16 O4          2.9808    1.6021    7.3641 O.2       1 <0>        -0.4385
     17 N1          3.8544    1.7718    5.2674 N.am      1 <0>        -0.6881
     18 C13         3.6014    1.2286    4.0649 C.2       1 <0>         0.5627
     19 O5          4.2139    1.4594    3.0411 O.2       1 <0>        -0.4460
     20 C14         0.9771   -0.4023    6.1545 C.2       1 <0>        -0.1498
     21 C15         0.9726   -1.7313    6.4731 C.2       1 <0>         0.1017
     22 N2         -0.2165   -2.0616    7.0401 N.pl3     1 <0>        -0.5805
     23 H1         -0.4547   -2.9495    7.3496 H         1 <0>         0.4220
     24 C16        -1.0377   -0.9549    7.1137 C.ar      1 <0>         0.0940
     25 C17        -0.3321    0.1318    6.5711 C.ar      1 <0>        -0.0729
     26 C18        -0.9223    1.3920    6.5199 C.ar      1 <0>        -0.0745
     27 C19        -2.1997    1.5675    7.0067 C.ar      1 <0>        -0.1346
     28 C20        -2.8965    0.4962    7.5457 C.ar      1 <0>        -0.0973
     29 C21        -2.3269   -0.7582    7.5963 C.ar      1 <0>        -0.1232
     30 H2          1.0053    1.8021    0.0021 H         1 <0>         0.0596
     31 H3         -0.5445    1.7859   -0.8732 H         1 <0>         0.1057
     32 H4         -0.5275    1.7763    0.9067 H         1 <0>         0.0593
     33 H5          1.1535    1.2155    2.0068 H         1 <0>         0.1390
     34 H6          2.3947   -2.3822    3.9904 H         1 <0>         0.1363
     35 H7          0.3608   -3.6760   -1.7211 H         1 <0>         0.0941
     36 H8          1.2835   -2.1713   -1.4914 H         1 <0>         0.0460
     37 H9          1.7948   -3.6635   -0.6667 H         1 <0>         0.0454
     38 H10         3.0868   -4.2449    3.3439 H         1 <0>         0.0586
     39 H11         1.5520   -4.2778    4.2447 H         1 <0>         0.0554
     40 H12         2.0235   -5.6686    3.2389 H         1 <0>         0.1052
     41 H13         4.5602    2.4125    5.4469 H         1 <0>         0.4317
     42 H14         1.7904   -2.4152    6.2998 H         1 <0>         0.1748
     43 H15        -0.3816    2.2278    6.1010 H         1 <0>         0.1192
     44 H16        -2.6600    2.5437    6.9688 H         1 <0>         0.1262
     45 H17        -3.8968    0.6450    7.9246 H         1 <0>         0.1287
     46 H18        -2.8777   -1.5852    8.0195 H         1 <0>         0.1235
@<TRIPOS>BOND
     1    1    2 1
     2    1   30 1
     3    1   31 1
     4    1   32 1
     5    2    3 1
     6    3    8 ar
     7    3    4 ar
     8    4    5 ar
     9    4   33 1
    10    5    6 ar
    11    5   13 1
    12    6    7 ar
    13    6   34 1
    14    7    8 ar
    15    7   11 1
    16    8    9 1
    17    9   10 1
    18   10   35 1
    19   10   36 1
    20   10   37 1
    21   11   12 1
    22   12   38 1
    23   12   39 1
    24   12   40 1
    25   13   18 1
    26   13   14 2
    27   14   15 1
    28   14   20 1
    29   15   16 2
    30   15   17 am
    31   17   18 am
    32   17   41 1
    33   18   19 2
    34   20   25 1
    35   20   21 2
    36   21   22 1
    37   21   42 1
    38   22   23 1
    39   22   24 1
    40   24   29 ar
    41   24   25 ar
    42   25   26 ar
    43   26   27 ar
    44   26   43 1
    45   27   28 ar
    46   27   44 1
    47   28   29 ar
    48   28   45 1
    49   29   46 1
@<TRIPOS>MOLECULE
CHEMBL208042
   39    42     0     0     0
SMALL
USER_CHARGES

@<TRIPOS>ATOM
      1 C1          0.7120    1.6822   -4.2546 C.3       1 <0>         0.0277
      2 O1          0.7547    0.2620   -4.4076 O.3       1 <0>        -0.3157
      3 C2          0.9766   -0.4729   -3.2862 C.ar      1 <0>         0.1468
      4 C3          1.1439    0.1607   -2.0625 C.ar      1 <0>        -0.2285
      5 C4          1.3696   -0.5850   -0.9213 C.ar      1 <0>        -0.0580
      6 C5          1.4295   -1.9634   -0.9943 C.ar      1 <0>        -0.1866
      7 C6          1.2627   -2.6030   -2.2162 C.ar      1 <0>         0.2088
      8 C7          1.0302   -1.8555   -3.3628 C.ar      1 <0>        -0.1496
      9 N1          1.3242   -3.9975   -2.2903 N.pl3     1 <0>        -0.6352
     10 C8          1.8470   -4.6093   -3.4192 C.ar      1 <0>         0.5757
     11 N2          2.3885   -3.8507   -4.3649 N.ar      1 <0>        -0.5553
     12 C9          2.9008   -4.3860   -5.4599 C.ar      1 <0>         0.2428
     13 C10         2.8624   -5.7720   -5.6058 C.ar      1 <0>        -0.2561
     14 C11         3.3058   -6.7178   -6.6316 C.2       1 <0>        -0.1347
     15 C12         2.9847   -7.9454   -6.1956 C.2       1 <0>         0.0355
     16 N3          2.3696   -7.8600   -4.9695 N.pl3     1 <0>        -0.4115
     17 C13         2.2797   -6.5479   -4.5817 C.ar      1 <0>         0.3800
     18 N4          1.7929   -5.9274   -3.5123 N.ar      1 <0>        -0.5427
     19 C14         1.9043   -8.9483   -4.2287 C.ar      1 <0>         0.3465
     20 C15         2.0583  -10.2367   -4.7271 C.ar      1 <0>        -0.1894
     21 C16         1.5928  -11.3064   -3.9828 C.ar      1 <0>        -0.0473
     22 C17         0.9867  -11.0489   -2.7607 C.ar      1 <0>        -0.1905
     23 C18         0.8673   -9.7433   -2.3272 C.ar      1 <0>         0.1349
     24 N5          1.3257   -8.7439   -3.0563 N.ar      1 <0>        -0.4787
     25 H1         -0.0895    1.9495   -3.5660 H         1 <0>         0.0554
     26 H2          1.6643    2.0337   -3.8578 H         1 <0>         0.0560
     27 H3          0.5284    2.1466   -5.2235 H         1 <0>         0.0997
     28 H4          1.0980    1.2381   -2.0023 H         1 <0>         0.1276
     29 H5          1.4998   -0.0895    0.0294 H         1 <0>         0.1286
     30 H6          1.6063   -2.5439   -0.1009 H         1 <0>         0.1259
     31 H7          0.8959   -2.3503   -4.3133 H         1 <0>         0.1420
     32 H8          1.0011   -4.5372   -1.5519 H         1 <0>         0.4256
     33 H9          3.3394   -3.7629   -6.2252 H         1 <0>         0.1773
     34 H10         3.7973   -6.4739   -7.5619 H         1 <0>         0.1650
     35 H11         3.1799   -8.8639   -6.7291 H         1 <0>         0.1843
     36 H12         2.5346  -10.4007   -5.6824 H         1 <0>         0.1414
     37 H13         1.6982  -12.3185   -4.3447 H         1 <0>         0.1448
     38 H14         0.6122  -11.8612   -2.1554 H         1 <0>         0.1424
     39 H15         0.3965   -9.5379   -1.3771 H         1 <0>         0.1651
@<TRIPOS>BOND
     1    1    2 1
     2    1   25 1
     3    1   26 1
     4    1   27 1
     5    2    3 1
     6    3    8 ar
     7    3    4 ar
     8    4    5 ar
     9    4   28 1
    10    5    6 ar
    11    5   29 1
    12    6    7 ar
    13    6   30 1
    14    7    8 ar
    15    7    9 1
    16    8   31 1
    17    9   10 1
    18    9   32 1
    19   10   18 ar
    20   10   11 ar
    21   11   12 ar
    22   12   13 ar
    23   12   33 1
    24   13   17 ar
    25   13   14 1
    26   14   15 2
    27   14   34 1
    28   15   16 1
    29   15   35 1
    30   16   17 1
    31   16   19 1
    32   17   18 ar
    33   19   24 ar
    34   19   20 ar
    35   20   21 ar
    36   20   36 1
    37   21   22 ar
    38   21   37 1
    39   22   23 ar
    40   22   38 1
    41   23   24 ar
    42   23   39 1
@<TRIPOS>MOLECULE
CHEMBL380515
   55    58     0     0     0
SMALL
USER_CHARGES

@<TRIPOS>ATOM
      1 C1         -1.0948    2.0863   -1.1725 C.3       1 <0>         0.0858
      2 N1         -0.8879    0.6424   -1.0359 N.am      1 <0>        -0.7295
      3 C2         -1.9460   -0.1786   -0.8846 C.2       1 <0>         0.5583
      4 O1         -3.0719    0.2789   -0.8616 O.2       1 <0>        -0.5299
      5 C3         -1.7372   -1.6359   -0.7467 C.ar      1 <0>        -0.1199
      6 C4         -0.4447   -2.1633   -0.7670 C.ar      1 <0>        -0.0827
      7 C5         -0.2527   -3.5235   -0.6376 C.ar      1 <0>        -0.1066
      8 C6         -1.3370   -4.3682   -0.4876 C.ar      1 <0>        -0.0766
      9 C7         -2.6270   -3.8531   -0.4661 C.ar      1 <0>         0.1189
     10 C8         -2.8304   -2.4875   -0.5900 C.ar      1 <0>        -0.0591
     11 N2         -3.7226   -4.7136   -0.3138 N.pl3     1 <0>        -0.4201
     12 C9         -4.7413   -4.5400    0.5912 C.2       1 <0>         0.0458
     13 C10        -5.6289   -5.5401    0.4772 C.2       1 <0>        -0.1482
     14 C11        -5.1409   -6.4231   -0.5835 C.ar      1 <0>        -0.2483
     15 C12        -3.9387   -5.8491   -1.0498 C.ar      1 <0>         0.3676
     16 N3         -3.2826   -6.4574   -2.0321 N.ar      1 <0>        -0.5719
     17 C13        -3.7523   -7.5753   -2.5607 C.ar      1 <0>         0.5812
     18 N4         -4.8812   -8.1385   -2.1472 N.ar      1 <0>        -0.5578
     19 C14        -5.5925   -7.6048   -1.1685 C.ar      1 <0>         0.2436
     20 N5         -3.0401   -8.1806   -3.5842 N.pl3     1 <0>        -0.6359
     21 C15        -3.5707   -9.2973   -4.2410 C.ar      1 <0>         0.2452
     22 C16        -4.9420   -9.4047   -4.4293 C.ar      1 <0>        -0.2288
     23 C17        -5.4681  -10.5100   -5.0795 C.ar      1 <0>         0.1699
     24 C18        -4.6225  -11.5108   -5.5430 C.ar      1 <0>         0.0089
     25 C19        -3.2499  -11.4026   -5.3541 C.ar      1 <0>         0.1712
     26 C20        -2.7248  -10.2939   -4.7087 C.ar      1 <0>        -0.2652
     27 O2         -2.4217  -12.3814   -5.8072 O.3       1 <0>        -0.2994
     28 C21        -1.0222  -12.2045   -5.5785 C.3       1 <0>         0.0243
     29 O3         -5.1387  -12.5973   -6.1815 O.3       1 <0>        -0.3105
     30 C22        -5.2793  -12.5095   -7.6008 C.3       1 <0>         0.0344
     31 O4         -6.8114  -10.6153   -5.2635 O.3       1 <0>        -0.2993
     32 C23        -7.6205   -9.5500   -4.7611 C.3       1 <0>         0.0257
     33 H1         -0.1307    2.5825   -1.2843 H         1 <0>         0.0795
     34 H2         -1.7090    2.2838   -2.0511 H         1 <0>         0.0633
     35 H3         -1.5985    2.4669   -0.2840 H         1 <0>         0.0637
     36 H4          0.0106    0.2773   -1.0542 H         1 <0>         0.4024
     37 H5          0.4048   -1.5067   -0.8843 H         1 <0>         0.1338
     38 H6          0.7478   -3.9298   -0.6539 H         1 <0>         0.1409
     39 H7         -1.1805   -5.4320   -0.3871 H         1 <0>         0.1339
     40 H8         -3.8323   -2.0849   -0.5694 H         1 <0>         0.1447
     41 H9         -4.8165   -3.7207    1.2908 H         1 <0>         0.1826
     42 H10        -6.5309   -5.6689    1.0571 H         1 <0>         0.1627
     43 H11        -6.5107   -8.0678   -0.8383 H         1 <0>         0.1773
     44 H12        -2.1740   -7.8305   -3.8453 H         1 <0>         0.4244
     45 H13        -5.5990   -8.6271   -4.0688 H         1 <0>         0.1496
     46 H14        -1.6578  -10.2075   -4.5657 H         1 <0>         0.1370
     47 H15        -0.8351  -12.1354   -4.5069 H         1 <0>         0.0579
     48 H16        -0.4768  -13.0545   -5.9885 H         1 <0>         0.1033
     49 H17        -0.6874  -11.2887   -6.0656 H         1 <0>         0.0567
     50 H18        -5.7007  -13.4395   -7.9824 H         1 <0>         0.0913
     51 H19        -5.9425  -11.6810   -7.8497 H         1 <0>         0.0432
     52 H20        -4.3019  -12.3410   -8.0530 H         1 <0>         0.0428
     53 H21        -7.4783   -9.4627   -3.6839 H         1 <0>         0.0624
     54 H22        -7.3312   -8.6158   -5.2426 H         1 <0>         0.0533
     55 H23        -8.6690   -9.7588   -4.9735 H         1 <0>         0.1022
@<TRIPOS>BOND
     1    1    2 1
     2    1   33 1
     3    1   34 1
     4    1   35 1
     5    2    3 am
     6    2   36 1
     7    3    4 2
     8    3    5 1
     9    5   10 ar
    10    5    6 ar
    11    6    7 ar
    12    6   37 1
    13    7    8 ar
    14    7   38 1
    15    8    9 ar
    16    8   39 1
    17    9   10 ar
    18    9   11 1
    19   10   40 1
    20   11   15 1
    21   11   12 1
    22   12   13 2
    23   12   41 1
    24   13   14 1
    25   13   42 1
    26   14   19 ar
    27   14   15 ar
    28   15   16 ar
    29   16   17 ar
    30   17   18 ar
    31   17   20 1
    32   18   19 ar
    33   19   43 1
    34   20   21 1
    35   20   44 1
    36   21   26 ar
    37   21   22 ar
    38   22   23 ar
    39   22   45 1
    40   23   24 ar
    41   23   31 1
    42   24   25 ar
    43   24   29 1
    44   25   26 ar
    45   25   27 1
    46   26   46 1
    47   27   28 1
    48   28   47 1
    49   28   48 1
    50   28   49 1
    51   29   30 1
    52   30   50 1
    53   30   51 1
    54   30   52 1
    55   31   32 1
    56   32   53 1
    57   32   54 1
    58   32   55 1
@<TRIPOS>MOLECULE
CHEMBL206322
   39    42     0     0     0
SMALL
USER_CHARGES

@<TRIPOS>ATOM
      1 C1         -0.3101    1.0369   -1.7609 C.3       1 <0>         0.0302
      2 O1         -0.1930   -0.2625   -1.1780 O.3       1 <0>        -0.3215
      3 C2         -1.2984   -0.7671   -0.5673 C.ar      1 <0>         0.0912
      4 C3         -2.4711   -0.0305   -0.5351 C.ar      1 <0>        -0.1863
      5 C4         -3.5942   -0.5448    0.0861 C.ar      1 <0>        -0.1045
      6 C5         -3.5513   -1.7945    0.6762 C.ar      1 <0>        -0.1324
      7 C6         -2.3854   -2.5361    0.6481 C.ar      1 <0>        -0.0938
      8 C7         -1.2559   -2.0286    0.0224 C.ar      1 <0>         0.1439
      9 N1         -0.0747   -2.7801   -0.0117 N.pl3     1 <0>        -0.6243
     10 C8         -0.1292   -4.1615    0.0860 C.ar      1 <0>         0.5778
     11 N2         -1.3164   -4.7564    0.0860 N.ar      1 <0>        -0.5603
     12 C9         -1.4214   -6.0711    0.1766 C.ar      1 <0>         0.2412
     13 C10        -0.2549   -6.8286    0.2730 C.ar      1 <0>        -0.2592
     14 C11         0.0457   -8.2570    0.3864 C.2       1 <0>        -0.1345
     15 C12         1.3813   -8.3715    0.4427 C.2       1 <0>         0.0348
     16 N3          1.9605   -7.1270    0.3742 N.pl3     1 <0>        -0.4118
     17 C13         0.9896   -6.1644    0.2701 C.ar      1 <0>         0.3826
     18 N4          1.0034   -4.8394    0.1704 N.ar      1 <0>        -0.5437
     19 C14         3.3343   -6.8796    0.4064 C.ar      1 <0>         0.3464
     20 C15         4.2233   -7.9432    0.5090 C.ar      1 <0>        -0.1896
     21 C16         5.5822   -7.6840    0.5398 C.ar      1 <0>        -0.0475
     22 C17         6.0065   -6.3642    0.4666 C.ar      1 <0>        -0.1907
     23 C18         5.0673   -5.3569    0.3660 C.ar      1 <0>         0.1351
     24 N5          3.7781   -5.6350    0.3334 N.ar      1 <0>        -0.4782
     25 H1          0.6405    1.3191   -2.2135 H         1 <0>         0.0997
     26 H2         -1.0867    1.0234   -2.5257 H         1 <0>         0.0556
     27 H3         -0.5734    1.7593   -0.9884 H         1 <0>         0.0558
     28 H4         -2.5080    0.9460   -0.9950 H         1 <0>         0.1304
     29 H5         -4.5074    0.0313    0.1108 H         1 <0>         0.1244
     30 H6         -4.4310   -2.1920    1.1606 H         1 <0>         0.1266
     31 H7         -2.3546   -3.5118    1.1101 H         1 <0>         0.1560
     32 H8          0.7816   -2.3338   -0.1037 H         1 <0>         0.4270
     33 H9         -2.3903   -6.5483    0.1764 H         1 <0>         0.1777
     34 H10        -0.6709   -9.0644    0.4186 H         1 <0>         0.1647
     35 H11         1.9209   -9.3030    0.5294 H         1 <0>         0.1840
     36 H12         3.8583   -8.9581    0.5642 H         1 <0>         0.1413
     37 H13         6.2965   -8.4901    0.6194 H         1 <0>         0.1446
     38 H14         7.0601   -6.1277    0.4885 H         1 <0>         0.1423
     39 H15         5.3925   -4.3286    0.3088 H         1 <0>         0.1650
@<TRIPOS>BOND
     1    1    2 1
     2    1   25 1
     3    1   26 1
     4    1   27 1
     5    2    3 1
     6    3    8 ar
     7    3    4 ar
     8    4    5 ar
     9    4   28 1
    10    5    6 ar
    11    5   29 1
    12    6    7 ar
    13    6   30 1
    14    7    8 ar
    15    7   31 1
    16    8    9 1
    17    9   10 1
    18    9   32 1
    19   10   18 ar
    20   10   11 ar
    21   11   12 ar
    22   12   13 ar
    23   12   33 1
    24   13   17 ar
    25   13   14 1
    26   14   15 2
    27   14   34 1
    28   15   16 1
    29   15   35 1
    30   16   17 1
    31   16   19 1
    32   17   18 ar
    33   19   24 ar
    34   19   20 ar
    35   20   21 ar
    36   20   36 1
    37   21   22 ar
    38   21   37 1
    39   22   23 ar
    40   22   38 1
    41   23   24 ar
    42   23   39 1
@<TRIPOS>MOLECULE
CHEMBL207491
   55    58     0     0     0
SMALL
USER_CHARGES

@<TRIPOS>ATOM
      1 C1         -3.4367   -3.9357   -2.2663 C.3       1 <0>         0.0264
      2 O1         -2.2735   -3.5713   -1.5204 O.3       1 <0>        -0.3021
      3 C2         -2.3506   -2.4396   -0.7702 C.ar      1 <0>         0.1667
      4 C3         -3.5229   -1.7004   -0.7491 C.ar      1 <0>        -0.2305
      5 C4         -3.6018   -0.5450    0.0166 C.ar      1 <0>         0.2533
      6 C5         -2.5065   -0.1289    0.7614 C.ar      1 <0>        -0.2630
      7 C6         -1.3333   -0.8668    0.7410 C.ar      1 <0>         0.1722
      8 C7         -1.2558   -2.0270   -0.0201 C.ar      1 <0>         0.0029
      9 O2         -0.1057   -2.7561   -0.0355 O.3       1 <0>        -0.3108
     10 C8          0.8621   -2.4199   -1.0317 C.3       1 <0>         0.0340
     11 O3         -0.2603   -0.4585    1.4699 O.3       1 <0>        -0.3023
     12 C9         -0.4126    0.7398    2.2334 C.3       1 <0>         0.0220
     13 N1         -4.7862    0.2011    0.0374 N.pl3     1 <0>        -0.6340
     14 C10        -6.0111   -0.4404   -0.0590 C.ar      1 <0>         0.5766
     15 N2         -6.0401   -1.7679   -0.0525 N.ar      1 <0>        -0.5584
     16 C11        -7.1830   -2.4264   -0.1416 C.ar      1 <0>         0.2344
     17 C12        -8.3670   -1.6973   -0.2432 C.ar      1 <0>        -0.2569
     18 C13        -9.7863   -2.0381   -0.3569 C.2       1 <0>        -0.1448
     19 C14       -10.4618   -0.8805   -0.4198 C.2       1 <0>         0.0420
     20 N3         -9.5854    0.1763   -0.3552 N.pl3     1 <0>        -0.4084
     21 C15        -8.2999   -0.2882   -0.2470 C.ar      1 <0>         0.3826
     22 N4         -7.1086    0.2922   -0.1485 N.ar      1 <0>        -0.5304
     23 C16        -9.9502    1.5235   -0.3940 C.ar      1 <0>         0.3422
     24 C17       -11.2920    1.8707   -0.4997 C.ar      1 <0>        -0.2062
     25 C18       -11.6399    3.2095   -0.5372 C.ar      1 <0>        -0.0485
     26 C19       -10.6291    4.1586   -0.4672 C.ar      1 <0>        -0.1900
     27 C20        -9.3167    3.7418   -0.3632 C.ar      1 <0>         0.1817
     28 N5         -9.0158    2.4579   -0.3243 N.ar      1 <0>        -0.4701
     29 C21        -8.2146    4.7668   -0.2868 C.3       1 <0>        -0.0476
     30 C22        -7.3713    4.5166    0.9650 C.3       1 <0>        -0.1701
     31 C23        -6.2691    5.5415    1.0413 C.2       1 <0>         0.4918
     32 O4         -6.1676    6.3932    0.1748 O.co2     1 <0>        -0.6999
     33 O5         -5.4790    5.5191    1.9696 O.co2     1 <0>        -0.7052
     34 H1         -3.2408   -4.8546   -2.8188 H         1 <0>         0.0986
     35 H2         -4.2715   -4.0932   -1.5834 H         1 <0>         0.0618
     36 H3         -3.6848   -3.1372   -2.9654 H         1 <0>         0.0529
     37 H4         -4.3751   -2.0231   -1.3288 H         1 <0>         0.1487
     38 H5         -2.5685    0.7702    1.3566 H         1 <0>         0.1414
     39 H6          0.4231   -2.5445   -2.0215 H         1 <0>         0.0417
     40 H7          1.1739   -1.3837   -0.9003 H         1 <0>         0.0428
     41 H8          1.7277   -3.0750   -0.9330 H         1 <0>         0.0877
     42 H9         -0.6456    1.5690    1.5654 H         1 <0>         0.0610
     43 H10        -1.2230    0.6127    2.9512 H         1 <0>         0.0598
     44 H11         0.5145    0.9516    2.7659 H         1 <0>         0.1021
     45 H12        -4.7496    1.1669    0.1192 H         1 <0>         0.4319
     46 H13        -7.1992   -3.5063   -0.1361 H         1 <0>         0.1737
     47 H14       -10.2089   -3.0316   -0.3851 H         1 <0>         0.1614
     48 H15       -11.5346   -0.7923   -0.5081 H         1 <0>         0.1817
     49 H16       -12.0528    1.1059   -0.5523 H         1 <0>         0.1353
     50 H17       -12.6742    3.5093   -0.6193 H         1 <0>         0.1406
     51 H18       -10.8666    5.2118   -0.4942 H         1 <0>         0.1414
     52 H19        -7.5833    4.6881   -1.1719 H         1 <0>         0.0848
     53 H20        -8.6495    5.7651   -0.2384 H         1 <0>         0.0808
     54 H21        -8.0026    4.5953    1.8501 H         1 <0>         0.0499
     55 H22        -6.9363    3.5183    0.9165 H         1 <0>         0.0704
@<TRIPOS>BOND
     1    1    2 1
     2    1   34 1
     3    1   35 1
     4    1   36 1
     5    2    3 1
     6    3    8 ar
     7    3    4 ar
     8    4    5 ar
     9    4   37 1
    10    5    6 ar
    11    5   13 1
    12    6    7 ar
    13    6   38 1
    14    7    8 ar
    15    7   11 1
    16    8    9 1
    17    9   10 1
    18   10   39 1
    19   10   40 1
    20   10   41 1
    21   11   12 1
    22   12   42 1
    23   12   43 1
    24   12   44 1
    25   13   14 1
    26   13   45 1
    27   14   22 ar
    28   14   15 ar
    29   15   16 ar
    30   16   17 ar
    31   16   46 1
    32   17   21 ar
    33   17   18 1
    34   18   19 2
    35   18   47 1
    36   19   20 1
    37   19   48 1
    38   20   21 1
    39   20   23 1
    40   21   22 ar
    41   23   28 ar
    42   23   24 ar
    43   24   25 ar
    44   24   49 1
    45   25   26 ar
    46   25   50 1
    47   26   27 ar
    48   26   51 1
    49   27   28 ar
    50   27   29 1
    51   29   30 1
    52   29   52 1
    53   29   53 1
    54   30   31 1
    55   30   54 1
    56   30   55 1
    57   31   32 2
    58   31   33 1
@<TRIPOS>MOLECULE
CHEMBL378661
   58    61     0     0     0
SMALL
USER_CHARGES

@<TRIPOS>ATOM
      1 C1         -1.7351    0.6969    0.3321 C.3       1 <0>        -0.1670
      2 C2         -1.4957   -0.8112    0.2363 C.3       1 <0>         0.1128
      3 N1         -0.6634   -1.1002   -0.9342 N.am      1 <0>        -0.7256
      4 C3         -0.3213   -2.3720   -1.2203 C.2       1 <0>         0.5590
      5 O1         -0.7033   -3.2793   -0.5073 O.2       1 <0>        -0.5309
      6 C4          0.5187   -2.6637   -2.4017 C.ar      1 <0>        -0.1194
      7 C5          0.9635   -1.6229   -3.2190 C.ar      1 <0>        -0.0828
      8 C6          1.7477   -1.8978   -4.3205 C.ar      1 <0>        -0.1066
      9 C7          2.0955   -3.2023   -4.6190 C.ar      1 <0>        -0.0768
     10 C8          1.6578   -4.2449   -3.8119 C.ar      1 <0>         0.1189
     11 C9          0.8741   -3.9788   -2.7000 C.ar      1 <0>        -0.0591
     12 N2          2.0132   -5.5652   -4.1189 N.pl3     1 <0>        -0.4200
     13 C10         2.5470   -6.4651   -3.2287 C.2       1 <0>         0.0459
     14 C11         2.7717   -7.6369   -3.8431 C.2       1 <0>        -0.1482
     15 C12         2.3490   -7.4751   -5.2352 C.ar      1 <0>        -0.2482
     16 C13         1.8740   -6.1510   -5.3498 C.ar      1 <0>         0.3676
     17 N3          1.4177   -5.7387   -6.5277 N.ar      1 <0>        -0.5718
     18 C14         1.4079   -6.5571   -7.5668 C.ar      1 <0>         0.5811
     19 N4          1.8442   -7.8087   -7.4912 N.ar      1 <0>        -0.5578
     20 C15         2.3233   -8.2980   -6.3599 C.ar      1 <0>         0.2435
     21 N5          0.9238   -6.0910   -8.7792 N.pl3     1 <0>        -0.6360
     22 C16         0.7922   -6.9665   -9.8636 C.ar      1 <0>         0.2452
     23 C17         0.4523   -8.2948   -9.6456 C.ar      1 <0>        -0.2288
     24 C18         0.3218   -9.1623  -10.7187 C.ar      1 <0>         0.1699
     25 C19         0.5314   -8.7022  -12.0132 C.ar      1 <0>         0.0089
     26 C20         0.8716   -7.3724  -12.2307 C.ar      1 <0>         0.1711
     27 C21         0.9962   -6.5047  -11.1569 C.ar      1 <0>        -0.2652
     28 O2          1.0768   -6.9211  -13.4970 O.3       1 <0>        -0.2994
     29 C22         1.4238   -5.5430  -13.6464 C.3       1 <0>         0.0244
     30 O3          0.4038   -9.5539  -13.0680 O.3       1 <0>        -0.3105
     31 C23        -0.8909   -9.6597  -13.6636 C.3       1 <0>         0.0344
     32 O4         -0.0107  -10.4635  -10.5049 O.3       1 <0>        -0.2993
     33 C24        -0.2108  -10.8676   -9.1489 C.3       1 <0>         0.0257
     34 H1         -0.7790    1.2110    0.4302 H         1 <0>         0.0630
     35 H2         -2.2425    1.0421   -0.5687 H         1 <0>         0.0629
     36 H3         -2.3543    0.9119    1.2030 H         1 <0>         0.0776
     37 H4         -0.9883   -1.1565    1.1371 H         1 <0>         0.0711
     38 H5         -2.4518   -1.3254    0.1382 H         1 <0>         0.0707
     39 H6         -0.3586   -0.3762   -1.5032 H         1 <0>         0.4008
     40 H7          0.6936   -0.6027   -2.9893 H         1 <0>         0.1332
     41 H8          2.0906   -1.0915   -4.9519 H         1 <0>         0.1408
     42 H9          2.7092   -3.4114   -5.4827 H         1 <0>         0.1338
     43 H10         0.5363   -4.7877   -2.0691 H         1 <0>         0.1447
     44 H11         2.7552   -6.2599   -2.1890 H         1 <0>         0.1826
     45 H12         3.1854   -8.5287   -3.3959 H         1 <0>         0.1627
     46 H13         2.6751   -9.3176   -6.3054 H         1 <0>         0.1773
     47 H14         0.6763   -5.1581   -8.8762 H         1 <0>         0.4244
     48 H15         0.2898   -8.6524   -8.6395 H         1 <0>         0.1496
     49 H16         1.2563   -5.4703  -11.3260 H         1 <0>         0.1370
     50 H17         2.3509   -5.3415  -13.1099 H         1 <0>         0.0579
     51 H18         1.5589   -5.3149  -14.7037 H         1 <0>         0.1033
     52 H19         0.6261   -4.9214  -13.2397 H         1 <0>         0.0567
     53 H20        -1.6064  -10.0072  -12.9183 H         1 <0>         0.0432
     54 H21        -1.2001   -8.6833  -14.0366 H         1 <0>         0.0428
     55 H22        -0.8537  -10.3692  -14.4901 H         1 <0>         0.0913
     56 H23        -0.4704  -11.9258   -9.1197 H         1 <0>         0.1022
     57 H24         0.7052  -10.7024   -8.5817 H         1 <0>         0.0624
     58 H25        -1.0197  -10.2828   -8.7111 H         1 <0>         0.0533
@<TRIPOS>BOND
     1    1    2 1
     2    1   34 1
     3    1   35 1
     4    1   36 1
     5    2    3 1
     6    2   37 1
     7    2   38 1
     8    3    4 am
     9    3   39 1
    10    4    5 2
    11    4    6 1
    12    6   11 ar
    13    6    7 ar
    14    7    8 ar
    15    7   40 1
    16    8    9 ar
    17    8   41 1
    18    9   10 ar
    19    9   42 1
    20   10   11 ar
    21   10   12 1
    22   11   43 1
    23   12   16 1
    24   12   13 1
    25   13   14 2
    26   13   44 1
    27   14   15 1
    28   14   45 1
    29   15   20 ar
    30   15   16 ar
    31   16   17 ar
    32   17   18 ar
    33   18   19 ar
    34   18   21 1
    35   19   20 ar
    36   20   46 1
    37   21   22 1
    38   21   47 1
    39   22   27 ar
    40   22   23 ar
    41   23   24 ar
    42   23   48 1
    43   24   25 ar
    44   24   32 1
    45   25   26 ar
    46   25   30 1
    47   26   27 ar
    48   26   28 1
    49   27   49 1
    50   28   29 1
    51   29   50 1
    52   29   51 1
    53   29   52 1
    54   30   31 1
    55   31   53 1
    56   31   54 1
    57   31   55 1
    58   32   33 1
    59   33   56 1
    60   33   57 1
    61   33   58 1
@<TRIPOS>MOLECULE
CHEMBL207961
   70    73     0     0     0
SMALL
USER_CHARGES

@<TRIPOS>ATOM
      1 C1         -1.6951    2.5019   -1.6245 C.3       1 <0>        -0.0478
      2 N1         -1.4777    1.0551   -1.4923 N.4       1 <0>        -0.3868
      3 C2         -0.6595    0.7897   -0.3015 C.3       1 <0>        -0.0537
      4 C3         -2.7731    0.3756   -1.3578 C.3       1 <0>        -0.0073
      5 C4         -2.5556   -1.1389   -1.3454 C.3       1 <0>        -0.1647
      6 C5         -3.9048   -1.8467   -1.2052 C.3       1 <0>         0.1237
      7 N2         -3.6966   -3.2968   -1.1934 N.am      1 <0>        -0.7332
      8 C6         -4.7511   -4.1280   -1.0779 C.2       1 <0>         0.5678
      9 O1         -5.8750   -3.6746   -0.9835 O.2       1 <0>        -0.5211
     10 C7         -4.5410   -5.5916   -1.0659 C.ar      1 <0>        -0.1275
     11 C8         -3.2506   -6.1148   -1.1683 C.ar      1 <0>        -0.0851
     12 C9         -3.0574   -7.4809   -1.1564 C.ar      1 <0>        -0.1054
     13 C10        -4.1382   -8.3357   -1.0433 C.ar      1 <0>        -0.0720
     14 C11        -5.4261   -7.8249   -0.9408 C.ar      1 <0>         0.1274
     15 C12        -5.6305   -6.4539   -0.9465 C.ar      1 <0>        -0.0579
     16 N3         -6.5181   -8.6956   -0.8264 N.pl3     1 <0>        -0.4240
     17 C13        -7.5088   -8.5973    0.1201 C.2       1 <0>         0.0396
     18 C14        -8.4013   -9.5852   -0.0484 C.2       1 <0>        -0.1414
     19 C15        -7.9471  -10.3782   -1.1920 C.ar      1 <0>        -0.2497
     20 C16        -6.7584   -9.7673   -1.6458 C.ar      1 <0>         0.3679
     21 N4         -6.1333  -10.2928   -2.6940 N.ar      1 <0>        -0.5754
     22 C17        -6.6209  -11.3640   -3.2978 C.ar      1 <0>         0.5843
     23 N5         -7.7378  -11.9599   -2.8978 N.ar      1 <0>        -0.5557
     24 C18        -8.4183  -11.5084   -1.8577 C.ar      1 <0>         0.2467
     25 N6         -5.9409  -11.8832   -4.3884 N.pl3     1 <0>        -0.6347
     26 C19        -6.4931  -12.9427   -5.1180 C.ar      1 <0>         0.2412
     27 C20        -7.8697  -13.0352   -5.2730 C.ar      1 <0>        -0.2285
     28 C21        -8.4172  -14.0840   -5.9952 C.ar      1 <0>         0.1700
     29 C22        -7.5878  -15.0430   -6.5642 C.ar      1 <0>         0.0116
     30 C23        -6.2100  -14.9497   -6.4086 C.ar      1 <0>         0.1714
     31 C24        -5.6636  -13.8973   -5.6909 C.ar      1 <0>        -0.2643
     32 O2         -5.3976  -15.8877   -6.9651 O.3       1 <0>        -0.2984
     33 C25        -3.9916  -15.7293   -6.7650 C.3       1 <0>         0.0244
     34 O3         -8.1250  -16.0739   -7.2735 O.3       1 <0>        -0.3102
     35 C26        -8.3082  -15.8704   -8.6760 C.3       1 <0>         0.0345
     36 O4         -9.7656  -14.1747   -6.1465 O.3       1 <0>        -0.2983
     37 C27       -10.5572  -13.1545   -5.5345 C.3       1 <0>         0.0259
     38 H1         -0.7340    3.0062   -1.7243 H         1 <0>         0.1259
     39 H2         -2.3023    2.6989   -2.5081 H         1 <0>         0.1248
     40 H3         -2.2105    2.8743   -0.7392 H         1 <0>         0.1233
     41 H4         -0.4981   -0.2838   -0.2034 H         1 <0>         0.1235
     42 H5          0.3017    1.2940   -0.4013 H         1 <0>         0.1260
     43 H6         -1.1749    1.1621    0.5838 H         1 <0>         0.1239
     44 H7         -3.2491    0.6819   -0.4263 H         1 <0>         0.1352
     45 H8         -3.4131    0.6438   -2.1983 H         1 <0>         0.1364
     46 H9         -2.0796   -1.4452   -2.2769 H         1 <0>         0.0957
     47 H10        -1.9155   -1.4072   -0.5049 H         1 <0>         0.0959
     48 H11        -4.3808   -1.5403   -0.2738 H         1 <0>         0.0811
     49 H12        -4.5449   -1.5784   -2.0457 H         1 <0>         0.0809
     50 H13        -2.7998   -3.6586   -1.2687 H         1 <0>         0.4033
     51 H14        -2.4039   -5.4503   -1.2572 H         1 <0>         0.1293
     52 H15        -2.0585   -7.8839   -1.2360 H         1 <0>         0.1419
     53 H16        -3.9808   -9.4041   -1.0349 H         1 <0>         0.1368
     54 H17        -6.6306   -6.0549   -0.8628 H         1 <0>         0.1456
     55 H18        -7.5613   -7.8380    0.8864 H         1 <0>         0.1821
     56 H19        -9.2856   -9.7615    0.5460 H         1 <0>         0.1638
     57 H20        -9.3270  -11.9974   -1.5389 H         1 <0>         0.1788
     58 H21        -5.0824  -11.5124   -4.6461 H         1 <0>         0.4240
     59 H22        -8.5141  -12.2901   -4.8304 H         1 <0>         0.1490
     60 H23        -4.5926  -13.8222   -5.5736 H         1 <0>         0.1369
     61 H24        -3.4603  -16.5425   -7.2594 H         1 <0>         0.1043
     62 H25        -3.6698  -14.7765   -7.1855 H         1 <0>         0.0562
     63 H26        -3.7721  -15.7479   -5.6975 H         1 <0>         0.0578
     64 H27        -8.7426  -16.7664   -9.1195 H         1 <0>         0.0926
     65 H28        -8.9770  -15.0248   -8.8362 H         1 <0>         0.0434
     66 H29        -7.3446  -15.6649   -9.1422 H         1 <0>         0.0431
     67 H30       -10.3826  -13.1556   -4.4585 H         1 <0>         0.0621
     68 H31       -10.2809  -12.1840   -5.9465 H         1 <0>         0.0527
     69 H32       -11.6121  -13.3459   -5.7315 H         1 <0>         0.1030
     70 H33        -1.0006    0.7105   -2.3119 H         1 <0>         0.4276
@<TRIPOS>BOND
     1    1    2 1
     2    1   38 1
     3    1   39 1
     4    1   40 1
     5    2    3 1
     6    2    4 1
     7    2   70 1
     8    3   41 1
     9    3   42 1
    10    3   43 1
    11    4    5 1
    12    4   44 1
    13    4   45 1
    14    5    6 1
    15    5   46 1
    16    5   47 1
    17    6    7 1
    18    6   48 1
    19    6   49 1
    20    7    8 am
    21    7   50 1
    22    8    9 2
    23    8   10 1
    24   10   15 ar
    25   10   11 ar
    26   11   12 ar
    27   11   51 1
    28   12   13 ar
    29   12   52 1
    30   13   14 ar
    31   13   53 1
    32   14   15 ar
    33   14   16 1
    34   15   54 1
    35   16   20 1
    36   16   17 1
    37   17   18 2
    38   17   55 1
    39   18   19 1
    40   18   56 1
    41   19   24 ar
    42   19   20 ar
    43   20   21 ar
    44   21   22 ar
    45   22   23 ar
    46   22   25 1
    47   23   24 ar
    48   24   57 1
    49   25   26 1
    50   25   58 1
    51   26   31 ar
    52   26   27 ar
    53   27   28 ar
    54   27   59 1
    55   28   29 ar
    56   28   36 1
    57   29   30 ar
    58   29   34 1
    59   30   31 ar
    60   30   32 1
    61   31   60 1
    62   32   33 1
    63   33   61 1
    64   33   62 1
    65   33   63 1
    66   34   35 1
    67   35   64 1
    68   35   65 1
    69   35   66 1
    70   36   37 1
    71   37   67 1
    72   37   68 1
    73   37   69 1
@<TRIPOS>MOLECULE
CHEMBL514554
   54    57     0     0     0
SMALL
USER_CHARGES

@<TRIPOS>ATOM
      1 C1          0.5293    2.5597    0.6609 C.3       1 <0>        -0.6502
      2 S1          0.5231    0.7695    0.9537 S.o2      1 <0>         2.4984
      3 O1          1.4953    0.4303    1.9330 O.2       1 <0>        -0.9347
      4 O2         -0.8122    0.2962    1.0642 O.2       1 <0>        -0.9346
      5 C2          1.1277    0.0637   -0.5434 C.ar      1 <0>        -0.6614
      6 C3          0.2466   -0.2729   -1.5542 C.ar      1 <0>        -0.0120
      7 C4          0.7209   -0.8265   -2.7284 C.ar      1 <0>        -0.1383
      8 C5          2.0765   -1.0432   -2.8924 C.ar      1 <0>        -0.0420
      9 C6          2.9574   -0.7058   -1.8823 C.ar      1 <0>        -0.1368
     10 C7          2.4834   -0.1481   -0.7093 C.ar      1 <0>        -0.0029
     11 C8          4.4350   -0.9424   -2.0608 C.3       1 <0>         0.1688
     12 N1          5.0507    0.2442   -2.6600 N.pl3     1 <0>        -0.6986
     13 C9          6.4111    0.2619   -2.9206 C.ar      1 <0>         0.5248
     14 C10         7.0097    1.3902   -3.4864 C.ar      1 <0>        -0.4122
     15 C11         8.3690    1.3631   -3.7288 C.ar      1 <0>         0.2743
     16 N2          9.0610    0.2761   -3.4201 N.ar      1 <0>        -0.5853
     17 C12         8.4672   -0.7800   -2.8843 C.ar      1 <0>         0.6213
     18 N3          7.1668   -0.7921   -2.6310 N.ar      1 <0>        -0.6121
     19 N4          9.2255   -1.8972   -2.5763 N.pl3     1 <0>        -0.6283
     20 C13        10.6173   -1.8605   -2.7227 C.ar      1 <0>         0.1388
     21 C14        11.3225   -0.7154   -2.3747 C.ar      1 <0>        -0.0732
     22 C15        12.6947   -0.6788   -2.5197 C.ar      1 <0>        -0.1299
     23 C16        13.3705   -1.7872   -3.0130 C.ar      1 <0>         0.1489
     24 C17        12.6655   -2.9321   -3.3601 C.ar      1 <0>        -0.1038
     25 C18        11.2938   -2.9710   -3.2106 C.ar      1 <0>        -0.1026
     26 C19        13.4022   -4.1332   -3.8938 C.3       1 <0>        -0.0768
     27 C20        14.6005   -3.6710   -4.7235 C.3       1 <0>        -0.1390
     28 C21        15.3853   -2.6389   -3.9597 C.2       1 <0>         0.5206
     29 O3         16.5932   -2.6051   -4.0653 O.2       1 <0>        -0.5264
     30 N5         14.7627   -1.7530   -3.1608 N.am      1 <0>        -0.6633
     31 C22         6.1907    2.6090   -3.8251 C.3       1 <0>         0.5288
     32 F1          7.0215    3.5910   -4.3752 F         1 <0>        -0.1721
     33 F2          5.2010    2.2632   -4.7513 F         1 <0>        -0.1789
     34 F3          5.5893    3.1043   -2.6631 F         1 <0>        -0.1791
     35 H1          1.5452    2.8884    0.4416 H         1 <0>         0.1320
     36 H2         -0.1182    2.7918   -0.1846 H         1 <0>         0.1324
     37 H3          0.1647    3.0745    1.5498 H         1 <0>         0.1352
     38 H4         -0.8123   -0.1037   -1.4261 H         1 <0>         0.1458
     39 H5          0.0325   -1.0901   -3.5178 H         1 <0>         0.1384
     40 H6          2.4470   -1.4764   -3.8097 H         1 <0>         0.1347
     41 H7          3.1722    0.1190    0.0785 H         1 <0>         0.1449
     42 H8          4.8915   -1.1379   -1.0906 H         1 <0>         0.0876
     43 H9          4.5891   -1.8010   -2.7145 H         1 <0>         0.0864
     44 H10         4.5057    1.0176   -2.8743 H         1 <0>         0.4141
     45 H11         8.8626    2.2186   -4.1656 H         1 <0>         0.1821
     46 H12         8.7923   -2.7050   -2.2591 H         1 <0>         0.4264
     47 H13        10.7970    0.1465   -1.9909 H         1 <0>         0.1359
     48 H14        13.2428    0.2116   -2.2492 H         1 <0>         0.1336
     49 H15        10.7463   -3.8630   -3.4771 H         1 <0>         0.1338
     50 H16        13.7510   -4.7446   -3.0615 H         1 <0>         0.0857
     51 H17        12.7319   -4.7215   -4.5204 H         1 <0>         0.0930
     52 H18        15.2414   -4.5254   -4.9409 H         1 <0>         0.1107
     53 H19        14.2473   -3.2377   -5.6593 H         1 <0>         0.1051
     54 H20        15.2815   -1.0864   -2.6841 H         1 <0>         0.4118
@<TRIPOS>BOND
     1    1    2 1
     2    1   35 1
     3    1   36 1
     4    1   37 1
     5    2    3 2
     6    2    4 2
     7    2    5 1
     8    5   10 ar
     9    5    6 ar
    10    6    7 ar
    11    6   38 1
    12    7    8 ar
    13    7   39 1
    14    8    9 ar
    15    8   40 1
    16    9   10 ar
    17    9   11 1
    18   10   41 1
    19   11   12 1
    20   11   42 1
    21   11   43 1
    22   12   13 1
    23   12   44 1
    24   13   18 ar
    25   13   14 ar
    26   14   15 ar
    27   14   31 1
    28   15   16 ar
    29   15   45 1
    30   16   17 ar
    31   17   18 ar
    32   17   19 1
    33   19   20 1
    34   19   46 1
    35   20   25 ar
    36   20   21 ar
    37   21   22 ar
    38   21   47 1
    39   22   23 ar
    40   22   48 1
    41   23   30 1
    42   23   24 ar
    43   24   25 ar
    44   24   26 1
    45   25   49 1
    46   26   27 1
    47   26   50 1
    48   26   51 1
    49   27   28 1
    50   27   52 1
    51   27   53 1
    52   28   29 2
    53   28   30 am
    54   30   54 1
    55   31   32 1
    56   31   33 1
    57   31   34 1
@<TRIPOS>MOLECULE
CHEMBL379837
   67    70     0     0     0
SMALL
USER_CHARGES

@<TRIPOS>ATOM
      1 C1          1.4206    0.3537    1.4959 C.3       1 <0>        -0.0469
      2 N1          1.2490   -1.0984    1.3540 N.4       1 <0>        -0.3828
      3 C2          1.8035   -1.7746    2.5344 C.3       1 <0>        -0.0563
      4 C3         -0.1810   -1.4132    1.2360 C.3       1 <0>        -0.0237
      5 C4         -0.3531   -2.9089    0.9636 C.3       1 <0>         0.0950
      6 N2         -1.7792   -3.2230    0.8459 N.am      1 <0>        -0.7310
      7 C5         -2.1727   -4.4892    0.6046 C.2       1 <0>         0.5734
      8 O1         -1.3443   -5.3707    0.4845 O.2       1 <0>        -0.5168
      9 C6         -3.6120   -4.8062    0.4857 C.ar      1 <0>        -0.1304
     10 C7         -4.5652   -3.7946    0.6174 C.ar      1 <0>        -0.0843
     11 C8         -5.9076   -4.0931    0.5056 C.ar      1 <0>        -0.1044
     12 C9         -6.3138   -5.3922    0.2633 C.ar      1 <0>        -0.0693
     13 C10        -5.3731   -6.4059    0.1307 C.ar      1 <0>         0.1290
     14 C11        -4.0218   -6.1156    0.2360 C.ar      1 <0>        -0.0566
     15 N3         -5.7901   -7.7210   -0.1149 N.pl3     1 <0>        -0.4250
     16 C12        -5.2927   -8.5338   -1.1043 C.2       1 <0>         0.0381
     17 C13        -5.9059   -9.7270   -1.0666 C.2       1 <0>        -0.1398
     18 C14        -6.8714   -9.6745    0.0325 C.ar      1 <0>        -0.2501
     19 C15        -6.7501   -8.3880    0.6002 C.ar      1 <0>         0.3680
     20 N4         -7.5215   -8.0744    1.6356 N.ar      1 <0>        -0.5761
     21 C16        -8.3809   -8.9543    2.1224 C.ar      1 <0>         0.5851
     22 N5         -8.5167  -10.1730    1.6135 N.ar      1 <0>        -0.5554
     23 C17        -7.7951  -10.5649    0.5770 C.ar      1 <0>         0.2473
     24 N6         -9.1683   -8.5907    3.2036 N.pl3     1 <0>        -0.6344
     25 C18       -10.0009   -9.5371    3.8128 C.ar      1 <0>         0.2403
     26 C19        -9.6058  -10.8662    3.8825 C.ar      1 <0>        -0.2284
     27 C20       -10.4296  -11.8037    4.4856 C.ar      1 <0>         0.1699
     28 C21       -11.6513  -11.4130    5.0205 C.ar      1 <0>         0.0121
     29 C22       -12.0461  -10.0824    4.9503 C.ar      1 <0>         0.1716
     30 C23       -11.2187   -9.1450    4.3520 C.ar      1 <0>        -0.2640
     31 O2        -13.2414   -9.6991    5.4735 O.3       1 <0>        -0.2982
     32 C24       -13.5830   -8.3157    5.3659 C.3       1 <0>         0.0244
     33 O3        -12.4613  -12.3336    5.6127 O.3       1 <0>        -0.3102
     34 C25       -12.2848  -12.5467    7.0146 C.3       1 <0>         0.0345
     35 O4        -10.0426  -13.1057    4.5533 O.3       1 <0>        -0.2981
     36 C26        -8.7749  -13.4362    3.9827 C.3       1 <0>         0.0260
     37 H1          2.4816    0.5873    1.5835 H         1 <0>         0.1286
     38 H2          1.0091    0.8555    0.6201 H         1 <0>         0.1253
     39 H3          0.8983    0.6956    2.3895 H         1 <0>         0.1238
     40 H4          1.6762   -2.8520    2.4291 H         1 <0>         0.1262
     41 H5          2.8646   -1.5410    2.6220 H         1 <0>         0.1294
     42 H6          1.2812   -1.4326    3.4279 H         1 <0>         0.1250
     43 H7         -0.6884   -1.1523    2.1648 H         1 <0>         0.1382
     44 H8         -0.6121   -0.8423    0.4137 H         1 <0>         0.1394
     45 H9          0.1543   -3.1699    0.0349 H         1 <0>         0.0921
     46 H10         0.0780   -3.4799    1.7860 H         1 <0>         0.0921
     47 H11        -2.4402   -2.5196    0.9417 H         1 <0>         0.4083
     48 H12        -4.2518   -2.7786    0.8071 H         1 <0>         0.1299
     49 H13        -6.6436   -3.3093    0.6082 H         1 <0>         0.1434
     50 H14        -7.3660   -5.6199    0.1771 H         1 <0>         0.1379
     51 H15        -3.2888   -6.9016    0.1291 H         1 <0>         0.1460
     52 H16        -4.5228   -8.2541   -1.8082 H         1 <0>         0.1821
     53 H17        -5.7223  -10.5656   -1.7219 H         1 <0>         0.1641
     54 H18        -7.9098  -11.5584    0.1692 H         1 <0>         0.1791
     55 H19        -9.1425   -7.6806    3.5382 H         1 <0>         0.4240
     56 H20        -8.6565  -11.1697    3.4665 H         1 <0>         0.1489
     57 H21       -11.5234   -8.1101    4.3013 H         1 <0>         0.1370
     58 H22       -14.5584   -8.1458    5.8217 H         1 <0>         0.1045
     59 H23       -12.8324   -7.7151    5.8797 H         1 <0>         0.0562
     60 H24       -13.6187   -8.0310    4.3144 H         1 <0>         0.0578
     61 H25       -12.9907  -13.3025    7.3590 H         1 <0>         0.0928
     62 H26       -11.2669  -12.8867    7.2051 H         1 <0>         0.0434
     63 H27       -12.4623  -11.6135    7.5492 H         1 <0>         0.0432
     64 H28        -8.5889  -14.5033    4.1042 H         1 <0>         0.1031
     65 H29        -8.7778  -13.1864    2.9217 H         1 <0>         0.0620
     66 H30        -7.9910  -12.8710    4.4868 H         1 <0>         0.0526
     67 H31         1.7325   -1.4149    0.5269 H         1 <0>         0.4307
@<TRIPOS>BOND
     1    1    2 1
     2    1   37 1
     3    1   38 1
     4    1   39 1
     5    2    3 1
     6    2    4 1
     7    2   67 1
     8    3   40 1
     9    3   41 1
    10    3   42 1
    11    4    5 1
    12    4   43 1
    13    4   44 1
    14    5    6 1
    15    5   45 1
    16    5   46 1
    17    6    7 am
    18    6   47 1
    19    7    8 2
    20    7    9 1
    21    9   14 ar
    22    9   10 ar
    23   10   11 ar
    24   10   48 1
    25   11   12 ar
    26   11   49 1
    27   12   13 ar
    28   12   50 1
    29   13   14 ar
    30   13   15 1
    31   14   51 1
    32   15   19 1
    33   15   16 1
    34   16   17 2
    35   16   52 1
    36   17   18 1
    37   17   53 1
    38   18   23 ar
    39   18   19 ar
    40   19   20 ar
    41   20   21 ar
    42   21   22 ar
    43   21   24 1
    44   22   23 ar
    45   23   54 1
    46   24   25 1
    47   24   55 1
    48   25   30 ar
    49   25   26 ar
    50   26   27 ar
    51   26   56 1
    52   27   28 ar
    53   27   35 1
    54   28   29 ar
    55   28   33 1
    56   29   30 ar
    57   29   31 1
    58   30   57 1
    59   31   32 1
    60   32   58 1
    61   32   59 1
    62   32   60 1
    63   33   34 1
    64   34   61 1
    65   34   62 1
    66   34   63 1
    67   35   36 1
    68   36   64 1
    69   36   65 1
    70   36   66 1
@<TRIPOS>MOLECULE
CHEMBL207614
   51    54     0     0     0
SMALL
USER_CHARGES

@<TRIPOS>ATOM
      1 C1         -0.9237    2.0081    0.7968 C.3       1 <0>        -0.1167
      2 C2         -0.7551    0.5241    0.5961 C.ar      1 <0>        -0.0693
      3 C3         -0.7661   -0.0059   -0.6814 C.ar      1 <0>        -0.1160
      4 C4         -0.6112   -1.3668   -0.8697 C.ar      1 <0>        -0.0979
      5 C5         -0.4455   -2.2016    0.2184 C.ar      1 <0>        -0.1088
      6 C6         -0.4340   -1.6727    1.5019 C.ar      1 <0>         0.1256
      7 C7         -0.5841   -0.3046    1.6874 C.ar      1 <0>        -0.1201
      8 N1         -0.2665   -2.5168    2.6075 N.pl3     1 <0>        -0.4186
      9 C8          0.6346   -2.3144    3.6244 C.2       1 <0>         0.0461
     10 C9          0.5381   -3.3054    4.5242 C.2       1 <0>        -0.1515
     11 C10        -0.5061   -4.2134    4.0466 C.ar      1 <0>        -0.2498
     12 C11        -0.9816   -3.6631    2.8371 C.ar      1 <0>         0.3676
     13 N2         -1.9519   -4.2974    2.1878 N.ar      1 <0>        -0.5706
     14 C12        -2.4602   -5.4190    2.6708 C.ar      1 <0>         0.5802
     15 N3         -2.0374   -5.9607    3.8068 N.ar      1 <0>        -0.5583
     16 C13        -1.0698   -5.3999    4.5125 C.ar      1 <0>         0.2423
     17 N4         -3.4717   -6.0518    1.9654 N.pl3     1 <0>        -0.6362
     18 C14        -4.1082   -7.1739    2.5092 C.ar      1 <0>         0.2457
     19 C15        -4.2958   -7.2680    3.8816 C.ar      1 <0>        -0.2289
     20 C16        -4.9259   -8.3786    4.4207 C.ar      1 <0>         0.1698
     21 C17        -5.3700   -9.3981    3.5872 C.ar      1 <0>         0.0087
     22 C18        -5.1819   -9.3031    2.2135 C.ar      1 <0>         0.1712
     23 C19        -4.5567   -8.1893    1.6753 C.ar      1 <0>        -0.2654
     24 O1         -5.6162  -10.3002    1.3970 O.3       1 <0>        -0.2995
     25 C20        -5.3895  -10.1363   -0.0043 C.3       1 <0>         0.0243
     26 O2         -5.9888  -10.4897    4.1162 O.3       1 <0>        -0.3105
     27 C21        -7.4097  -10.4264    4.2548 C.3       1 <0>         0.0344
     28 O3         -5.1091   -8.4708    5.7651 O.3       1 <0>        -0.2994
     29 C22        -4.6272   -7.3866    6.5614 C.3       1 <0>         0.0258
     30 H1          0.0537    2.4903    0.7802 H         1 <0>         0.0754
     31 H2         -1.5432    2.4148   -0.0025 H         1 <0>         0.0714
     32 H3         -1.4036    2.1925    1.7580 H         1 <0>         0.0686
     33 H4         -0.8962    0.6447   -1.5336 H         1 <0>         0.1297
     34 H5         -0.6202   -1.7777   -1.8684 H         1 <0>         0.1322
     35 H6         -0.3253   -3.2647    0.0707 H         1 <0>         0.1265
     36 H7         -0.5714    0.1103    2.6845 H         1 <0>         0.1295
     37 H8          1.3189   -1.4815    3.6900 H         1 <0>         0.1809
     38 H9          1.1200   -3.4128    5.4277 H         1 <0>         0.1615
     39 H10        -0.7316   -5.8457    5.4363 H         1 <0>         0.1767
     40 H11        -3.7385   -5.7172    1.0949 H         1 <0>         0.4245
     41 H12        -3.9503   -6.4758    4.5292 H         1 <0>         0.1495
     42 H13        -4.4144   -8.1133    0.6074 H         1 <0>         0.1370
     43 H14        -5.8932   -9.2338   -0.3507 H         1 <0>         0.0567
     44 H15        -4.3192  -10.0496   -0.1916 H         1 <0>         0.0579
     45 H16        -5.7833  -11.0003   -0.5396 H         1 <0>         0.1034
     46 H17        -7.6744   -9.5947    4.9076 H         1 <0>         0.0431
     47 H18        -7.8640  -10.2783    3.2751 H         1 <0>         0.0428
     48 H19        -7.7744  -11.3581    4.6873 H         1 <0>         0.0912
     49 H20        -5.1256   -6.4651    6.2604 H         1 <0>         0.0531
     50 H21        -4.8366   -7.5864    7.6123 H         1 <0>         0.1020
     51 H22        -3.5517   -7.2812    6.4190 H         1 <0>         0.0623
@<TRIPOS>BOND
     1    1    2 1
     2    1   30 1
     3    1   31 1
     4    1   32 1
     5    2    7 ar
     6    2    3 ar
     7    3    4 ar
     8    3   33 1
     9    4    5 ar
    10    4   34 1
    11    5    6 ar
    12    5   35 1
    13    6    7 ar
    14    6    8 1
    15    7   36 1
    16    8   12 1
    17    8    9 1
    18    9   10 2
    19    9   37 1
    20   10   11 1
    21   10   38 1
    22   11   16 ar
    23   11   12 ar
    24   12   13 ar
    25   13   14 ar
    26   14   15 ar
    27   14   17 1
    28   15   16 ar
    29   16   39 1
    30   17   18 1
    31   17   40 1
    32   18   23 ar
    33   18   19 ar
    34   19   20 ar
    35   19   41 1
    36   20   21 ar
    37   20   28 1
    38   21   22 ar
    39   21   26 1
    40   22   23 ar
    41   22   24 1
    42   23   42 1
    43   24   25 1
    44   25   43 1
    45   25   44 1
    46   25   45 1
    47   26   27 1
    48   27   46 1
    49   27   47 1
    50   27   48 1
    51   28   29 1
    52   29   49 1
    53   29   50 1
    54   29   51 1
@<TRIPOS>MOLECULE
CHEMBL379279
   59    62     0     0     0
SMALL
USER_CHARGES

@<TRIPOS>ATOM
      1 C1          3.7489   -3.8383   -1.9189 C.3       1 <0>         0.0256
      2 O1          2.5164   -3.5060   -1.2766 O.3       1 <0>        -0.2993
      3 C2          1.8867   -2.3759   -1.6961 C.ar      1 <0>         0.1698
      4 C3          2.4416   -1.6081   -2.7079 C.ar      1 <0>        -0.2285
      5 C4          1.7989   -0.4544   -3.1363 C.ar      1 <0>         0.2453
      6 C5          0.5999   -0.0691   -2.5520 C.ar      1 <0>        -0.2648
      7 C6          0.0438   -0.8359   -1.5400 C.ar      1 <0>         0.1708
      8 C7          0.6839   -1.9937   -1.1143 C.ar      1 <0>         0.0093
      9 O2          0.1353   -2.7506   -0.1240 O.3       1 <0>        -0.3104
     10 C8          0.5102   -2.4335    1.2180 C.3       1 <0>         0.0342
     11 O3         -1.1302   -0.4579   -0.9671 O.3       1 <0>        -0.2995
     12 C9         -1.7351    0.7403   -1.4575 C.3       1 <0>         0.0243
     13 N1          2.3604    0.3211   -4.1577 N.pl3     1 <0>        -0.6361
     14 C10         3.0661   -0.2891   -5.1829 C.ar      1 <0>         0.5810
     15 N2          3.0965   -1.6155   -5.2373 N.ar      1 <0>        -0.5577
     16 C11         3.7554   -2.2449   -6.1951 C.ar      1 <0>         0.2436
     17 C12         4.4234   -1.4860   -7.1552 C.ar      1 <0>        -0.2483
     18 C13         5.2370   -1.7903   -8.3334 C.2       1 <0>        -0.1486
     19 C14         5.6102   -0.6153   -8.8635 C.2       1 <0>         0.0461
     20 N3          5.0990    0.4179   -8.1165 N.pl3     1 <0>        -0.4197
     21 C15         4.3704   -0.0788   -7.0676 C.ar      1 <0>         0.3672
     22 N4          3.6799    0.4712   -6.0741 N.ar      1 <0>        -0.5717
     23 C16         5.2941    1.7790   -8.3870 C.ar      1 <0>         0.1180
     24 C17         4.2065    2.6434   -8.4214 C.ar      1 <0>        -0.0765
     25 C18         4.3935    3.9867   -8.6877 C.ar      1 <0>        -0.1069
     26 C19         5.6618    4.4788   -8.9207 C.ar      1 <0>        -0.0813
     27 C20         6.7607    3.6188   -8.8879 C.ar      1 <0>        -0.1188
     28 C21         6.5721    2.2639   -8.6144 C.ar      1 <0>        -0.0587
     29 C22         8.1205    4.1429   -9.1376 C.2       1 <0>         0.5597
     30 O4          9.0760    3.3922   -9.1085 O.2       1 <0>        -0.5326
     31 N5          8.3005    5.4531   -9.3975 N.am      1 <0>        -0.7189
     32 C23         9.6479    5.9724   -9.6449 C.3       1 <0>         0.1185
     33 C24         9.5734    7.4772   -9.9116 C.3       1 <0>         0.0620
     34 O5          9.1202    8.1478   -8.7339 O.3       1 <0>        -0.5723
     35 H1          3.5764   -3.9781   -2.9860 H         1 <0>         0.0624
     36 H2          4.4658   -3.0310   -1.7694 H         1 <0>         0.0533
     37 H3          4.1447   -4.7594   -1.4911 H         1 <0>         0.1022
     38 H4          3.3743   -1.9072   -3.1630 H         1 <0>         0.1493
     39 H5          0.1006    0.8284   -2.8857 H         1 <0>         0.1370
     40 H6          1.5890   -2.5428    1.3294 H         1 <0>         0.0432
     41 H7          0.2240   -1.4059    1.4421 H         1 <0>         0.0429
     42 H8          0.0035   -3.1101    1.9063 H         1 <0>         0.0912
     43 H9         -2.6630    0.9265   -0.9166 H         1 <0>         0.1033
     44 H10        -1.0539    1.5782   -1.3095 H         1 <0>         0.0567
     45 H11        -1.9500    0.6301   -2.5204 H         1 <0>         0.0578
     46 H12         2.2557    1.2853   -4.1479 H         1 <0>         0.4245
     47 H13         3.7761   -3.3241   -6.2329 H         1 <0>         0.1773
     48 H14         5.4888   -2.7726   -8.7050 H         1 <0>         0.1625
     49 H15         6.2219   -0.4992   -9.7460 H         1 <0>         0.1825
     50 H16         3.2117    2.2642   -8.2399 H         1 <0>         0.1338
     51 H17         3.5443    4.6535   -8.7138 H         1 <0>         0.1406
     52 H18         5.8038    5.5290   -9.1288 H         1 <0>         0.1333
     53 H19         7.4190    1.5944   -8.5839 H         1 <0>         0.1447
     54 H20         7.5380    6.0522   -9.4207 H         1 <0>         0.4037
     55 H21        10.2741    5.7887   -8.7719 H         1 <0>         0.0790
     56 H22        10.0771    5.4705  -10.5121 H         1 <0>         0.0865
     57 H23        10.5621    7.8474  -10.1828 H         1 <0>         0.0674
     58 H24         8.8775    7.6674  -10.7286 H         1 <0>         0.0550
     59 H25         9.0489    9.1073   -8.8305 H         1 <0>         0.3850
@<TRIPOS>BOND
     1    1    2 1
     2    1   35 1
     3    1   36 1
     4    1   37 1
     5    2    3 1
     6    3    8 ar
     7    3    4 ar
     8    4    5 ar
     9    4   38 1
    10    5    6 ar
    11    5   13 1
    12    6    7 ar
    13    6   39 1
    14    7    8 ar
    15    7   11 1
    16    8    9 1
    17    9   10 1
    18   10   40 1
    19   10   41 1
    20   10   42 1
    21   11   12 1
    22   12   43 1
    23   12   44 1
    24   12   45 1
    25   13   14 1
    26   13   46 1
    27   14   22 ar
    28   14   15 ar
    29   15   16 ar
    30   16   17 ar
    31   16   47 1
    32   17   21 ar
    33   17   18 1
    34   18   19 2
    35   18   48 1
    36   19   20 1
    37   19   49 1
    38   20   21 1
    39   20   23 1
    40   21   22 ar
    41   23   28 ar
    42   23   24 ar
    43   24   25 ar
    44   24   50 1
    45   25   26 ar
    46   25   51 1
    47   26   27 ar
    48   26   52 1
    49   27   28 ar
    50   27   29 1
    51   28   53 1
    52   29   30 2
    53   29   31 am
    54   31   32 1
    55   31   54 1
    56   32   33 1
    57   32   55 1
    58   32   56 1
    59   33   34 1
    60   33   57 1
    61   33   58 1
    62   34   59 1
@<TRIPOS>MOLECULE
CHEMBL460746
   45    48     0     0     0
SMALL
USER_CHARGES

@<TRIPOS>ATOM
      1 C1         -0.0050    1.2556    1.2013 C.ar      1 <0>        -0.1135
      2 C2          1.1644    1.9682    1.4276 C.ar      1 <0>        -0.0914
      3 C3          2.3809    1.3155    1.3532 C.ar      1 <0>        -0.0693
      4 C4          2.4105   -0.0253    1.0571 C.ar      1 <0>        -0.1422
      5 C5          1.2364   -0.7790    0.8214 C.ar      1 <0>         0.0755
      6 C6          0.0132   -0.0718    0.9074 C.ar      1 <0>        -0.0571
      7 N1          1.4257   -2.0836    0.5426 N.2       1 <0>        -0.4791
      8 C7          2.6216   -2.6293    0.4909 C.2       1 <0>         0.2034
      9 S1          3.6884   -1.2436    0.8607 S.3       1 <0>         0.0045
     10 C8          2.9893   -4.0306    0.2016 C.ar      1 <0>        -0.0452
     11 C9          4.3300   -4.4171    0.1996 C.ar      1 <0>        -0.0268
     12 C10         4.6675   -5.7327   -0.0720 C.ar      1 <0>         0.1075
     13 C11         3.6736   -6.6665   -0.3423 C.ar      1 <0>        -0.0765
     14 C12         2.3451   -6.2898   -0.3416 C.ar      1 <0>        -0.1412
     15 C13         1.9935   -4.9778   -0.0658 C.ar      1 <0>         0.1730
     16 O1          0.6857   -4.6105   -0.0601 O.3       1 <0>        -0.4731
     17 N2          6.0129   -6.1230   -0.0746 N.pl3     1 <0>        -0.6175
     18 C14         6.8486   -5.6676    0.8798 C.2       1 <0>         0.5033
     19 S2          6.2386   -4.7282    2.1745 S.2       1 <0>        -0.4611
     20 N3          8.1645   -5.9517    0.8148 N.am      1 <0>        -0.6375
     21 C15         9.0001   -5.4963    1.7691 C.2       1 <0>         0.5323
     22 O2          8.5671   -4.8295    2.6882 O.2       1 <0>        -0.3823
     23 C16        10.4429   -5.8078    1.6979 C.ar      1 <0>        -0.0854
     24 C17        10.9445   -6.5687    0.6403 C.ar      1 <0>        -0.0906
     25 C18        12.2925   -6.8554    0.5796 C.ar      1 <0>        -0.0578
     26 C19        13.1468   -6.3907    1.5639 C.ar      1 <0>        -0.0229
     27 C20        12.6562   -5.6365    2.6151 C.ar      1 <0>        -0.0551
     28 C21        11.3113   -5.3376    2.6848 C.ar      1 <0>        -0.0518
     29 N4         14.5921   -6.7023    1.4923 N.pl3     1 <0>         0.0261
     30 O3         15.0236   -7.3615    0.5752 O.2       1 <0>        -0.1476
     31 O4         15.3410   -6.2977    2.3508 O.3       1 <0>        -0.1442
     32 H1         -0.9538    1.7675    1.2646 H         1 <0>         0.1351
     33 H2          1.1245    3.0224    1.6590 H         1 <0>         0.1398
     34 H3          3.3001    1.8554    1.5262 H         1 <0>         0.1345
     35 H4         -0.9172   -0.5932    0.7378 H         1 <0>         0.1340
     36 H5          5.1026   -3.6922    0.4088 H         1 <0>         0.1504
     37 H6          3.9418   -7.6910   -0.5542 H         1 <0>         0.1389
     38 H7          1.5779   -7.0200   -0.5528 H         1 <0>         0.1473
     39 H8          0.3569   -4.3134   -0.9196 H         1 <0>         0.3968
     40 H9          6.3431   -6.7210   -0.7633 H         1 <0>         0.4113
     41 H10         8.5101   -6.4839    0.0812 H         1 <0>         0.4110
     42 H11        10.2787   -6.9323   -0.1284 H         1 <0>         0.1470
     43 H12        12.6819   -7.4442   -0.2377 H         1 <0>         0.1638
     44 H13        13.3283   -5.2775    3.3804 H         1 <0>         0.1666
     45 H14        10.9303   -4.7451    3.5034 H         1 <0>         0.1667
@<TRIPOS>BOND
     1    1    6 ar
     2    1    2 ar
     3    1   32 1
     4    2    3 ar
     5    2   33 1
     6    3    4 ar
     7    3   34 1
     8    4    9 1
     9    4    5 ar
    10    5    6 ar
    11    5    7 1
    12    6   35 1
    13    7    8 2
    14    8    9 1
    15    8   10 1
    16   10   15 ar
    17   10   11 ar
    18   11   12 ar
    19   11   36 1
    20   12   13 ar
    21   12   17 1
    22   13   14 ar
    23   13   37 1
    24   14   15 ar
    25   14   38 1
    26   15   16 1
    27   16   39 1
    28   17   18 1
    29   17   40 1
    30   18   19 2
    31   18   20 1
    32   20   21 am
    33   20   41 1
    34   21   22 2
    35   21   23 1
    36   23   28 ar
    37   23   24 ar
    38   24   25 ar
    39   24   42 1
    40   25   26 ar
    41   25   43 1
    42   26   27 ar
    43   26   29 1
    44   27   28 ar
    45   27   44 1
    46   28   45 1
    47   29   30 2
    48   29   31 1
@<TRIPOS>MOLECULE
CHEMBL206876
   55    59     0     0     0
SMALL
USER_CHARGES

@<TRIPOS>ATOM
      1 C1         -3.4372   -3.9339   -2.2691 C.3       1 <0>         0.0251
      2 O1         -2.2736   -3.5696   -1.5240 O.3       1 <0>        -0.3011
      3 C2         -2.3505   -2.4385   -0.7729 C.ar      1 <0>         0.1699
      4 C3         -3.5231   -1.6998   -0.7502 C.ar      1 <0>        -0.2288
      5 C4         -3.6018   -0.5450    0.0165 C.ar      1 <0>         0.2529
      6 C5         -2.5063   -0.1295    0.7614 C.ar      1 <0>        -0.2670
      7 C6         -1.3330   -0.8671    0.7397 C.ar      1 <0>         0.1701
      8 C7         -1.2552   -2.0260   -0.0234 C.ar      1 <0>         0.0042
      9 O2         -0.1045   -2.7541   -0.0411 O.3       1 <0>        -0.3108
     10 C8          0.8620   -2.4157   -1.0378 C.3       1 <0>         0.0340
     11 O3         -0.2599   -0.4595    1.4688 O.3       1 <0>        -0.3013
     12 C9         -0.4122    0.7379    2.2337 C.3       1 <0>         0.0244
     13 N1         -4.7862    0.2011    0.0381 N.pl3     1 <0>        -0.6382
     14 C10        -6.0112   -0.4404   -0.0583 C.ar      1 <0>         0.5744
     15 N2         -6.0401   -1.7680   -0.0528 N.ar      1 <0>        -0.5612
     16 C11        -7.1829   -2.4265   -0.1424 C.ar      1 <0>         0.2365
     17 C12        -8.3670   -1.6975   -0.2436 C.ar      1 <0>        -0.2471
     18 C13        -9.7861   -2.0379   -0.3576 C.2       1 <0>        -0.1630
     19 C14       -10.4612   -0.8797   -0.4197 C.2       1 <0>         0.0565
     20 N3         -9.5848    0.1761   -0.3543 N.pl3     1 <0>        -0.4099
     21 C15        -8.3000   -0.2881   -0.2464 C.ar      1 <0>         0.3676
     22 N4         -7.1086    0.2923   -0.1470 N.ar      1 <0>        -0.5637
     23 C16        -9.9506    1.5281   -0.3927 C.ar      1 <0>         0.1088
     24 C17        -9.4596    2.4090    0.5619 C.ar      1 <0>        -0.1118
     25 C18        -9.8220    3.7410    0.5215 C.ar      1 <0>        -0.1075
     26 C19       -10.6730    4.1978   -0.4684 C.ar      1 <0>        -0.0985
     27 C20       -11.1639    3.3231   -1.4199 C.ar      1 <0>        -0.0421
     28 C21       -10.8001    1.9908   -1.3884 C.ar      1 <0>        -0.1011
     29 C22       -12.0913    3.8249   -2.4965 C.3       1 <0>         0.0332
     30 C23       -11.2833    4.2708   -3.6879 C.2       1 <0>         0.0538
     31 N5        -10.9182    3.5235   -4.7194 N.2       1 <0>        -0.3847
     32 N6        -10.2419    4.2717   -5.5227 N.2       1 <0>        -0.1975
     33 N7        -10.1713    5.4593   -5.0303 N.2       1 <0>        -0.1975
     34 N8        -10.8061    5.4872   -3.9083 N.2       1 <0>        -0.3839
     35 H1         -3.2415   -4.8523   -2.8225 H         1 <0>         0.1008
     36 H2         -4.2715   -4.0922   -1.5857 H         1 <0>         0.0629
     37 H3         -3.6863   -3.1349   -2.9675 H         1 <0>         0.0546
     38 H4         -4.3756   -2.0224   -1.3294 H         1 <0>         0.1504
     39 H5         -2.5683    0.7689    1.3575 H         1 <0>         0.1367
     40 H6          0.4219   -2.5393   -2.0273 H         1 <0>         0.0429
     41 H7          1.1730   -1.3795   -0.9053 H         1 <0>         0.0422
     42 H8          1.7281   -3.0703   -0.9410 H         1 <0>         0.0890
     43 H9         -0.6456    1.5679    1.5668 H         1 <0>         0.0571
     44 H10        -1.2224    0.6097    2.9516 H         1 <0>         0.0576
     45 H11         0.5150    0.9493    2.7663 H         1 <0>         0.1015
     46 H12        -4.7496    1.1668    0.1206 H         1 <0>         0.4250
     47 H13        -7.1989   -3.5064   -0.1377 H         1 <0>         0.1740
     48 H14       -10.2090   -3.0313   -0.3866 H         1 <0>         0.1591
     49 H15       -11.5339   -0.7909   -0.5083 H         1 <0>         0.1810
     50 H16        -8.7953    2.0528    1.3354 H         1 <0>         0.1208
     51 H17        -9.4407    4.4265    1.2638 H         1 <0>         0.1276
     52 H18       -10.9549    5.2399   -0.4979 H         1 <0>         0.1309
     53 H19       -11.1801    1.3089   -2.1348 H         1 <0>         0.1303
     54 H20       -12.7679    3.0243   -2.7954 H         1 <0>         0.0790
     55 H21       -12.6700    4.6659   -2.1146 H         1 <0>         0.0818
@<TRIPOS>BOND
     1    1    2 1
     2    1   35 1
     3    1   36 1
     4    1   37 1
     5    2    3 1
     6    3    8 ar
     7    3    4 ar
     8    4    5 ar
     9    4   38 1
    10    5    6 ar
    11    5   13 1
    12    6    7 ar
    13    6   39 1
    14    7    8 ar
    15    7   11 1
    16    8    9 1
    17    9   10 1
    18   10   40 1
    19   10   41 1
    20   10   42 1
    21   11   12 1
    22   12   43 1
    23   12   44 1
    24   12   45 1
    25   13   14 1
    26   13   46 1
    27   14   22 ar
    28   14   15 ar
    29   15   16 ar
    30   16   17 ar
    31   16   47 1
    32   17   21 ar
    33   17   18 1
    34   18   19 2
    35   18   48 1
    36   19   20 1
    37   19   49 1
    38   20   21 1
    39   20   23 1
    40   21   22 ar
    41   23   28 ar
    42   23   24 ar
    43   24   25 ar
    44   24   50 1
    45   25   26 ar
    46   25   51 1
    47   26   27 ar
    48   26   52 1
    49   27   28 ar
    50   27   29 1
    51   28   53 1
    52   29   54 1
    53   29   55 1
    54   29   30 1
    55   30   31 2
    56   30   34 1
    57   31   32 1
    58   32   33 2
    59   33   34 1
@<TRIPOS>MOLECULE
CHEMBL377708
   71    75     0     0     0
SMALL
USER_CHARGES

@<TRIPOS>ATOM
      1 C1          3.7489   -3.8383   -1.9189 C.3       1 <0>         0.0259
      2 O1          2.5164   -3.5060   -1.2766 O.3       1 <0>        -0.2981
      3 C2          1.8867   -2.3759   -1.6961 C.ar      1 <0>         0.1698
      4 C3          2.4416   -1.6081   -2.7079 C.ar      1 <0>        -0.2282
      5 C4          1.7989   -0.4544   -3.1363 C.ar      1 <0>         0.2403
      6 C5          0.5999   -0.0691   -2.5520 C.ar      1 <0>        -0.2637
      7 C6          0.0438   -0.8359   -1.5400 C.ar      1 <0>         0.1712
      8 C7          0.6839   -1.9937   -1.1143 C.ar      1 <0>         0.0125
      9 O2          0.1353   -2.7506   -0.1240 O.3       1 <0>        -0.3101
     10 C8          0.5102   -2.4335    1.2180 C.3       1 <0>         0.0343
     11 O3         -1.1302   -0.4579   -0.9671 O.3       1 <0>        -0.2982
     12 C9         -1.7351    0.7403   -1.4575 C.3       1 <0>         0.0244
     13 N1          2.3604    0.3211   -4.1577 N.pl3     1 <0>        -0.6345
     14 C10         3.0661   -0.2891   -5.1829 C.ar      1 <0>         0.5851
     15 N2          3.0965   -1.6155   -5.2373 N.ar      1 <0>        -0.5551
     16 C11         3.7554   -2.2449   -6.1951 C.ar      1 <0>         0.2475
     17 C12         4.4234   -1.4860   -7.1552 C.ar      1 <0>        -0.2501
     18 C13         5.2370   -1.7903   -8.3334 C.2       1 <0>        -0.1400
     19 C14         5.6102   -0.6153   -8.8635 C.2       1 <0>         0.0382
     20 N3          5.0990    0.4179   -8.1165 N.pl3     1 <0>        -0.4248
     21 C15         4.3704   -0.0788   -7.0676 C.ar      1 <0>         0.3676
     22 N4          3.6799    0.4712   -6.0741 N.ar      1 <0>        -0.5761
     23 C16         5.2941    1.7790   -8.3870 C.ar      1 <0>         0.1287
     24 C17         4.2065    2.6434   -8.4214 C.ar      1 <0>        -0.0692
     25 C18         4.3935    3.9867   -8.6877 C.ar      1 <0>        -0.1046
     26 C19         5.6618    4.4788   -8.9207 C.ar      1 <0>        -0.0840
     27 C20         6.7607    3.6188   -8.8879 C.ar      1 <0>        -0.1303
     28 C21         6.5721    2.2639   -8.6144 C.ar      1 <0>        -0.0565
     29 C22         8.1205    4.1429   -9.1376 C.2       1 <0>         0.5733
     30 O4          9.0760    3.3922   -9.1085 O.2       1 <0>        -0.5168
     31 N5          8.3005    5.4531   -9.3975 N.am      1 <0>        -0.7310
     32 C23         9.6479    5.9724   -9.6449 C.3       1 <0>         0.0974
     33 C24         9.5734    7.4772   -9.9116 C.3       1 <0>        -0.0177
     34 N6         10.9245    7.9979  -10.1597 N.4       1 <0>        -0.3911
     35 C25        11.4434    7.4809  -11.4518 C.3       1 <0>        -0.0110
     36 C26        12.5419    8.5065  -11.8286 C.3       1 <0>        -0.1452
     37 C27        11.9358    9.8496  -11.3611 C.3       1 <0>        -0.1454
     38 C28        10.8858    9.4697  -10.3006 C.3       1 <0>        -0.0072
     39 H1          3.5764   -3.9781   -2.9860 H         1 <0>         0.0620
     40 H2          4.4658   -3.0310   -1.7694 H         1 <0>         0.0526
     41 H3          4.1447   -4.7594   -1.4911 H         1 <0>         0.1031
     42 H4          3.3743   -1.9072   -3.1630 H         1 <0>         0.1486
     43 H5          0.1006    0.8284   -2.8857 H         1 <0>         0.1370
     44 H6          1.5890   -2.5428    1.3294 H         1 <0>         0.0434
     45 H7          0.2240   -1.4059    1.4421 H         1 <0>         0.0433
     46 H8          0.0035   -3.1101    1.9063 H         1 <0>         0.0928
     47 H9         -1.0539    1.5782   -1.3095 H         1 <0>         0.0563
     48 H10        -1.9500    0.6301   -2.5204 H         1 <0>         0.0578
     49 H11        -2.6630    0.9265   -0.9166 H         1 <0>         0.1045
     50 H12         2.2557    1.2853   -4.1479 H         1 <0>         0.4240
     51 H13         3.7761   -3.3241   -6.2329 H         1 <0>         0.1791
     52 H14         5.4888   -2.7726   -8.7050 H         1 <0>         0.1640
     53 H15         6.2219   -0.4992   -9.7460 H         1 <0>         0.1820
     54 H16         3.2117    2.2642   -8.2399 H         1 <0>         0.1380
     55 H17         3.5443    4.6535   -8.7138 H         1 <0>         0.1433
     56 H18         5.8038    5.5290   -9.1288 H         1 <0>         0.1299
     57 H19         7.4190    1.5944   -8.5839 H         1 <0>         0.1460
     58 H20         7.5380    6.0522   -9.4207 H         1 <0>         0.4080
     59 H21        10.2741    5.7887   -8.7719 H         1 <0>         0.0911
     60 H22        10.0771    5.4705  -10.5121 H         1 <0>         0.0913
     61 H23         8.9472    7.6609  -10.7846 H         1 <0>         0.1374
     62 H24         9.1442    7.9790   -9.0444 H         1 <0>         0.1378
     63 H25        11.8724    6.4870  -11.3241 H         1 <0>         0.1380
     64 H26        10.6554    7.4670  -12.2049 H         1 <0>         0.1357
     65 H27        13.4676    8.2941  -11.2937 H         1 <0>         0.0997
     66 H28        12.7102    8.5133  -12.9055 H         1 <0>         0.1182
     67 H29        12.7079   10.4800  -10.9201 H         1 <0>         0.1067
     68 H30        11.4604   10.3617  -12.1977 H         1 <0>         0.1049
     69 H31         9.8955    9.7854  -10.6288 H         1 <0>         0.1318
     70 H32        11.1322    9.9404   -9.3489 H         1 <0>         0.1344
     71 H33        11.5423    7.7366   -9.4060 H         1 <0>         0.4302
@<TRIPOS>BOND
     1    1    2 1
     2    1   39 1
     3    1   40 1
     4    1   41 1
     5    2    3 1
     6    3    8 ar
     7    3    4 ar
     8    4    5 ar
     9    4   42 1
    10    5    6 ar
    11    5   13 1
    12    6    7 ar
    13    6   43 1
    14    7    8 ar
    15    7   11 1
    16    8    9 1
    17    9   10 1
    18   10   44 1
    19   10   45 1
    20   10   46 1
    21   11   12 1
    22   12   47 1
    23   12   48 1
    24   12   49 1
    25   13   14 1
    26   13   50 1
    27   14   22 ar
    28   14   15 ar
    29   15   16 ar
    30   16   17 ar
    31   16   51 1
    32   17   21 ar
    33   17   18 1
    34   18   19 2
    35   18   52 1
    36   19   20 1
    37   19   53 1
    38   20   21 1
    39   20   23 1
    40   21   22 ar
    41   23   28 ar
    42   23   24 ar
    43   24   25 ar
    44   24   54 1
    45   25   26 ar
    46   25   55 1
    47   26   27 ar
    48   26   56 1
    49   27   28 ar
    50   27   29 1
    51   28   57 1
    52   29   30 2
    53   29   31 am
    54   31   32 1
    55   31   58 1
    56   32   33 1
    57   32   59 1
    58   32   60 1
    59   33   34 1
    60   33   61 1
    61   33   62 1
    62   34   38 1
    63   34   35 1
    64   34   71 1
    65   35   36 1
    66   35   63 1
    67   35   64 1
    68   36   37 1
    69   36   65 1
    70   36   66 1
    71   37   38 1
    72   37   67 1
    73   37   68 1
    74   38   69 1
    75   38   70 1
@<TRIPOS>MOLECULE
CHEMBL206255
   53    56     0     0     0
SMALL
USER_CHARGES

@<TRIPOS>ATOM
      1 C1          3.7489   -3.8383   -1.9189 C.3       1 <0>         0.0251
      2 O1          2.5164   -3.5060   -1.2766 O.3       1 <0>        -0.3015
      3 C2          1.8867   -2.3759   -1.6961 C.ar      1 <0>         0.1696
      4 C3          2.4416   -1.6081   -2.7079 C.ar      1 <0>        -0.2290
      5 C4          1.7989   -0.4544   -3.1363 C.ar      1 <0>         0.2544
      6 C5          0.5999   -0.0691   -2.5520 C.ar      1 <0>        -0.2673
      7 C6          0.0438   -0.8359   -1.5400 C.ar      1 <0>         0.1699
      8 C7          0.6839   -1.9937   -1.1143 C.ar      1 <0>         0.0034
      9 O2          0.1355   -2.7504   -0.1237 O.3       1 <0>        -0.3109
     10 C8          0.5105   -2.4329    1.2182 C.3       1 <0>         0.0341
     11 O3         -1.1302   -0.4579   -0.9672 O.3       1 <0>        -0.3016
     12 C9         -1.7352    0.7402   -1.4576 C.3       1 <0>         0.0244
     13 N1          2.3604    0.3211   -4.1577 N.pl3     1 <0>        -0.6383
     14 C10         3.0661   -0.2891   -5.1829 C.ar      1 <0>         0.5727
     15 N2          3.0965   -1.6155   -5.2373 N.ar      1 <0>        -0.5622
     16 C11         3.7554   -2.2449   -6.1951 C.ar      1 <0>         0.2353
     17 C12         4.4234   -1.4860   -7.1552 C.ar      1 <0>        -0.2476
     18 C13         5.2366   -1.7903   -8.3337 C.2       1 <0>        -0.1660
     19 C14         5.6097   -0.6153   -8.8640 C.2       1 <0>         0.0573
     20 N3          5.0987    0.4179   -8.1168 N.pl3     1 <0>        -0.4077
     21 C15         4.3704   -0.0788   -7.0676 C.ar      1 <0>         0.3680
     22 N4          3.6799    0.4712   -6.0741 N.ar      1 <0>        -0.5605
     23 C16         5.2936    1.7788   -8.3873 C.ar      1 <0>         0.1097
     24 C17         4.2078    2.6438   -8.4218 C.ar      1 <0>        -0.1217
     25 C18         4.4032    3.9846   -8.6887 C.ar      1 <0>        -0.1040
     26 C19         5.6786    4.4661   -8.9215 C.ar      1 <0>        -0.1074
     27 C20         6.7616    3.6073   -8.8883 C.ar      1 <0>        -0.0041
     28 C21         6.5733    2.2662   -8.6157 C.ar      1 <0>        -0.1092
     29 C22         8.1496    4.1360   -9.1430 C.3       1 <0>        -0.1602
     30 C23         8.7707    4.5656   -7.8389 C.2       1 <0>         0.4962
     31 O4          8.1442    4.4530   -6.7990 O.co2     1 <0>        -0.6853
     32 O5          9.8996    5.0259   -7.8237 O.co2     1 <0>        -0.6994
     33 H1          3.5764   -3.9781   -2.9860 H         1 <0>         0.0630
     34 H2          4.4658   -3.0310   -1.7694 H         1 <0>         0.0546
     35 H3          4.1447   -4.7595   -1.4911 H         1 <0>         0.1004
     36 H4          3.3743   -1.9072   -3.1630 H         1 <0>         0.1506
     37 H5          0.1006    0.8284   -2.8857 H         1 <0>         0.1368
     38 H6          1.5893   -2.5419    1.3294 H         1 <0>         0.0427
     39 H7          0.2241   -1.4053    1.4420 H         1 <0>         0.0421
     40 H8          0.0040   -3.1093    1.9066 H         1 <0>         0.0886
     41 H9         -1.0540    1.5781   -1.3096 H         1 <0>         0.0572
     42 H10        -1.9501    0.6300   -2.5205 H         1 <0>         0.0576
     43 H11        -2.6631    0.9264   -0.9168 H         1 <0>         0.1012
     44 H12         2.2557    1.2853   -4.1479 H         1 <0>         0.4253
     45 H13         3.7761   -3.3240   -6.2329 H         1 <0>         0.1732
     46 H14         5.4885   -2.7726   -8.7052 H         1 <0>         0.1583
     47 H15         6.2211   -0.4993   -9.7466 H         1 <0>         0.1799
     48 H16         3.2116    2.2683   -8.2404 H         1 <0>         0.1181
     49 H17         3.5591    4.6577   -8.7160 H         1 <0>         0.1243
     50 H18         5.8289    5.5151   -9.1300 H         1 <0>         0.1226
     51 H19         7.4202    1.5967   -8.5852 H         1 <0>         0.1219
     52 H20         8.7591    3.3536   -9.5953 H         1 <0>         0.0714
     53 H21         8.0949    4.9899   -9.8182 H         1 <0>         0.0741
@<TRIPOS>BOND
     1    1    2 1
     2    1   33 1
     3    1   34 1
     4    1   35 1
     5    2    3 1
     6    3    8 ar
     7    3    4 ar
     8    4    5 ar
     9    4   36 1
    10    5    6 ar
    11    5   13 1
    12    6    7 ar
    13    6   37 1
    14    7    8 ar
    15    7   11 1
    16    8    9 1
    17    9   10 1
    18   10   38 1
    19   10   39 1
    20   10   40 1
    21   11   12 1
    22   12   41 1
    23   12   42 1
    24   12   43 1
    25   13   14 1
    26   13   44 1
    27   14   22 ar
    28   14   15 ar
    29   15   16 ar
    30   16   17 ar
    31   16   45 1
    32   17   21 ar
    33   17   18 1
    34   18   19 2
    35   18   46 1
    36   19   20 1
    37   19   47 1
    38   20   21 1
    39   20   23 1
    40   21   22 ar
    41   23   28 ar
    42   23   24 ar
    43   24   25 ar
    44   24   48 1
    45   25   26 ar
    46   25   49 1
    47   26   27 ar
    48   26   50 1
    49   27   28 ar
    50   27   29 1
    51   28   51 1
    52   29   30 1
    53   29   52 1
    54   29   53 1
    55   30   31 2
    56   30   32 1
@<TRIPOS>MOLECULE
CHEMBL207605
   56    59     0     0     0
SMALL
USER_CHARGES

@<TRIPOS>ATOM
      1 C1          3.7489   -3.8383   -1.9189 C.3       1 <0>         0.0252
      2 O1          2.5164   -3.5060   -1.2766 O.3       1 <0>        -0.3009
      3 C2          1.8867   -2.3759   -1.6961 C.ar      1 <0>         0.1698
      4 C3          2.4416   -1.6081   -2.7079 C.ar      1 <0>        -0.2288
      5 C4          1.7989   -0.4544   -3.1363 C.ar      1 <0>         0.2518
      6 C5          0.5999   -0.0691   -2.5520 C.ar      1 <0>        -0.2667
      7 C6          0.0438   -0.8359   -1.5400 C.ar      1 <0>         0.1702
      8 C7          0.6839   -1.9937   -1.1143 C.ar      1 <0>         0.0050
      9 O2          0.1355   -2.7504   -0.1237 O.3       1 <0>        -0.3108
     10 C8          0.5105   -2.4329    1.2182 C.3       1 <0>         0.0341
     11 O3         -1.1302   -0.4579   -0.9672 O.3       1 <0>        -0.3010
     12 C9         -1.7352    0.7402   -1.4576 C.3       1 <0>         0.0244
     13 N1          2.3604    0.3211   -4.1577 N.pl3     1 <0>        -0.6380
     14 C10         3.0661   -0.2891   -5.1829 C.ar      1 <0>         0.5746
     15 N2          3.0965   -1.6155   -5.2373 N.ar      1 <0>        -0.5611
     16 C11         3.7554   -2.2449   -6.1951 C.ar      1 <0>         0.2378
     17 C12         4.4234   -1.4860   -7.1552 C.ar      1 <0>        -0.2472
     18 C13         5.2366   -1.7903   -8.3337 C.2       1 <0>        -0.1615
     19 C14         5.6097   -0.6153   -8.8640 C.2       1 <0>         0.0555
     20 N3          5.0987    0.4179   -8.1168 N.pl3     1 <0>        -0.4117
     21 C15         4.3704   -0.0788   -7.0676 C.ar      1 <0>         0.3666
     22 N4          3.6799    0.4712   -6.0741 N.ar      1 <0>        -0.5648
     23 C16         5.2936    1.7788   -8.3873 C.ar      1 <0>         0.1141
     24 C17         4.2078    2.6438   -8.4218 C.ar      1 <0>        -0.1167
     25 C18         4.4032    3.9846   -8.6887 C.ar      1 <0>        -0.1025
     26 C19         5.6786    4.4661   -8.9215 C.ar      1 <0>        -0.1128
     27 C20         6.7616    3.6073   -8.8883 C.ar      1 <0>        -0.0472
     28 C21         6.5733    2.2662   -8.6157 C.ar      1 <0>        -0.1162
     29 C22         8.1496    4.1360   -9.1430 C.3       1 <0>        -0.0609
     30 C23         8.7801    4.5722   -7.8190 C.3       1 <0>        -0.1758
     31 C24        10.1682    5.1009   -8.0737 C.2       1 <0>         0.4900
     32 O4         10.6120    5.1264   -9.2090 O.co2     1 <0>        -0.6978
     33 O5         10.8474    5.5031   -7.1445 O.co2     1 <0>        -0.7040
     34 H1          3.5764   -3.9781   -2.9860 H         1 <0>         0.0629
     35 H2          4.4658   -3.0310   -1.7694 H         1 <0>         0.0543
     36 H3          4.1447   -4.7595   -1.4911 H         1 <0>         0.1010
     37 H4          3.3743   -1.9072   -3.1630 H         1 <0>         0.1503
     38 H5          0.1006    0.8284   -2.8857 H         1 <0>         0.1368
     39 H6          0.0040   -3.1093    1.9066 H         1 <0>         0.0893
     40 H7          1.5893   -2.5419    1.3294 H         1 <0>         0.0430
     41 H8          0.2241   -1.4053    1.4420 H         1 <0>         0.0423
     42 H9         -2.6631    0.9264   -0.9168 H         1 <0>         0.1018
     43 H10        -1.0540    1.5781   -1.3096 H         1 <0>         0.0570
     44 H11        -1.9501    0.6300   -2.5205 H         1 <0>         0.0577
     45 H12         2.2557    1.2853   -4.1479 H         1 <0>         0.4248
     46 H13         3.7761   -3.3240   -6.2329 H         1 <0>         0.1744
     47 H14         5.4885   -2.7726   -8.7052 H         1 <0>         0.1597
     48 H15         6.2211   -0.4993   -9.7466 H         1 <0>         0.1816
     49 H16         3.2116    2.2683   -8.2404 H         1 <0>         0.1213
     50 H17         3.5591    4.6577   -8.7160 H         1 <0>         0.1277
     51 H18         5.8289    5.5151   -9.1300 H         1 <0>         0.1292
     52 H19         7.4202    1.5967   -8.5852 H         1 <0>         0.1286
     53 H20         8.7591    3.3536   -9.5953 H         1 <0>         0.0733
     54 H21         8.0949    4.9899   -9.8182 H         1 <0>         0.0760
     55 H22         8.1707    5.3545   -7.3666 H         1 <0>         0.0582
     56 H23         8.8349    3.7182   -7.1438 H         1 <0>         0.0562
@<TRIPOS>BOND
     1    1    2 1
     2    1   34 1
     3    1   35 1
     4    1   36 1
     5    2    3 1
     6    3    8 ar
     7    3    4 ar
     8    4    5 ar
     9    4   37 1
    10    5    6 ar
    11    5   13 1
    12    6    7 ar
    13    6   38 1
    14    7    8 ar
    15    7   11 1
    16    8    9 1
    17    9   10 1
    18   10   39 1
    19   10   40 1
    20   10   41 1
    21   11   12 1
    22   12   42 1
    23   12   43 1
    24   12   44 1
    25   13   14 1
    26   13   45 1
    27   14   22 ar
    28   14   15 ar
    29   15   16 ar
    30   16   17 ar
    31   16   46 1
    32   17   21 ar
    33   17   18 1
    34   18   19 2
    35   18   47 1
    36   19   20 1
    37   19   48 1
    38   20   21 1
    39   20   23 1
    40   21   22 ar
    41   23   28 ar
    42   23   24 ar
    43   24   25 ar
    44   24   49 1
    45   25   26 ar
    46   25   50 1
    47   26   27 ar
    48   26   51 1
    49   27   28 ar
    50   27   29 1
    51   28   52 1
    52   29   30 1
    53   29   53 1
    54   29   54 1
    55   30   31 1
    56   30   55 1
    57   30   56 1
    58   31   32 2
    59   31   33 1
@<TRIPOS>MOLECULE
CHEMBL472212
   56    59     0     0     0
SMALL
USER_CHARGES

@<TRIPOS>ATOM
      1 C1         -0.8170    1.0093   -1.3594 C.3       1 <0>         0.0800
      2 N1          0.0526    1.2855   -0.2132 N.pl3     1 <0>        -0.9594
      3 C2         -0.2370    0.7268    1.0338 C.ar      1 <0>         0.1577
      4 C3         -1.1028    1.3773    1.9040 C.ar      1 <0>        -0.1196
      5 C4         -1.3873    0.8220    3.1358 C.ar      1 <0>        -0.0989
      6 C5         -0.8110   -0.3803    3.5038 C.ar      1 <0>        -0.1102
      7 C6          0.0514   -1.0301    2.6403 C.ar      1 <0>        -0.0874
      8 C7          0.3355   -0.4832    1.4042 C.ar      1 <0>        -0.0987
      9 C8          1.2704   -1.1955    0.4609 C.3       1 <0>         0.1624
     10 N2          2.6247   -0.6594    0.6183 N.pl3     1 <0>        -0.6957
     11 C9          3.6695   -1.1890   -0.1213 C.ar      1 <0>         0.5233
     12 C10         4.9659   -0.6895    0.0249 C.ar      1 <0>        -0.4082
     13 C11         5.9764   -1.2479   -0.7328 C.ar      1 <0>         0.2703
     14 N3          5.6895   -2.2339   -1.5703 N.ar      1 <0>        -0.5884
     15 C12         4.4507   -2.6881   -1.6886 C.ar      1 <0>         0.6183
     16 N4          3.4543   -2.1835   -0.9761 N.ar      1 <0>        -0.6129
     17 N5          4.1917   -3.7198   -2.5755 N.pl3     1 <0>        -0.6293
     18 C13         5.2061   -4.1898   -3.4181 C.ar      1 <0>         0.1432
     19 C14         5.3136   -5.5476   -3.6911 C.ar      1 <0>        -0.1052
     20 C15         6.3115   -6.0134   -4.5205 C.ar      1 <0>        -0.1162
     21 C16         7.2208   -5.1250   -5.0919 C.ar      1 <0>         0.1279
     22 C17         7.1052   -3.7690   -4.8135 C.ar      1 <0>        -0.1217
     23 C18         6.1072   -3.2995   -3.9902 C.ar      1 <0>        -0.0529
     24 C19         8.2194   -3.0827   -5.5699 C.3       1 <0>        -0.1147
     25 C20         8.9363   -4.2132   -6.2768 C.2       1 <0>         0.5287
     26 O1          9.9030   -4.1111   -7.0023 O.2       1 <0>        -0.5037
     27 N6          8.3006   -5.3509   -5.9498 N.am      1 <0>        -0.6598
     28 C21         5.2550    0.4337    0.9872 C.3       1 <0>         0.5243
     29 F1          6.6182    0.7452    0.9444 F         1 <0>        -0.1783
     30 F2          4.5077    1.5602    0.6272 F         1 <0>        -0.1614
     31 F3          4.9075    0.0382    2.2834 F         1 <0>        -0.1794
     32 S1          1.3789    2.2602   -0.3960 S.o2      1 <0>         2.5975
     33 O2          2.1898    1.9854    0.7381 O.2       1 <0>        -0.9354
     34 O3          1.8516    1.9870   -1.7079 O.2       1 <0>        -0.9420
     35 C22         0.7303    3.9519   -0.3052 C.3       1 <0>        -0.6739
     36 H1         -1.6037    1.7621   -1.4083 H         1 <0>         0.0610
     37 H2         -0.2290    1.0381   -2.2768 H         1 <0>         0.0882
     38 H3         -1.2651    0.0222   -1.2459 H         1 <0>         0.0822
     39 H4         -1.5525    2.3165    1.6176 H         1 <0>         0.1291
     40 H5         -2.0602    1.3271    3.8128 H         1 <0>         0.1316
     41 H6         -1.0349   -0.8123    4.4680 H         1 <0>         0.1313
     42 H7          0.5003   -1.9684    2.9311 H         1 <0>         0.1319
     43 H8          1.2730   -2.2616    0.6881 H         1 <0>         0.0857
     44 H9          0.9364   -1.0435   -0.5654 H         1 <0>         0.0820
     45 H10         2.7898    0.0664    1.2402 H         1 <0>         0.4293
     46 H11         6.9895   -0.8846   -0.6441 H         1 <0>         0.1812
     47 H12         3.3074   -4.1168   -2.6128 H         1 <0>         0.4262
     48 H13         4.6125   -6.2414   -3.2514 H         1 <0>         0.1350
     49 H14         6.3891   -7.0704   -4.7280 H         1 <0>         0.1321
     50 H15         6.0269   -2.2421   -3.7859 H         1 <0>         0.1382
     51 H16         7.8114   -2.3774   -6.2940 H         1 <0>         0.1244
     52 H17         8.8936   -2.5756   -4.8797 H         1 <0>         0.1265
     53 H18         8.5612   -6.2279   -6.2720 H         1 <0>         0.4135
     54 H19         0.3271    4.1334    0.6911 H         1 <0>         0.1303
     55 H20         1.5337    4.6603   -0.5067 H         1 <0>         0.1322
     56 H21        -0.0598    4.0783   -1.0454 H         1 <0>         0.1280
@<TRIPOS>BOND
     1    1    2 1
     2    1   36 1
     3    1   37 1
     4    1   38 1
     5    2    3 1
     6    2   32 1
     7    3    8 ar
     8    3    4 ar
     9    4    5 ar
    10    4   39 1
    11    5    6 ar
    12    5   40 1
    13    6    7 ar
    14    6   41 1
    15    7    8 ar
    16    7   42 1
    17    8    9 1
    18    9   10 1
    19    9   43 1
    20    9   44 1
    21   10   11 1
    22   10   45 1
    23   11   16 ar
    24   11   12 ar
    25   12   13 ar
    26   12   28 1
    27   13   14 ar
    28   13   46 1
    29   14   15 ar
    30   15   16 ar
    31   15   17 1
    32   17   18 1
    33   17   47 1
    34   18   23 ar
    35   18   19 ar
    36   19   20 ar
    37   19   48 1
    38   20   21 ar
    39   20   49 1
    40   21   27 1
    41   21   22 ar
    42   22   23 ar
    43   22   24 1
    44   23   50 1
    45   24   25 1
    46   24   51 1
    47   24   52 1
    48   25   26 2
    49   25   27 am
    50   27   53 1
    51   28   29 1
    52   28   30 1
    53   28   31 1
    54   32   33 2
    55   32   34 2
    56   32   35 1
    57   35   54 1
    58   35   55 1
    59   35   56 1
@<TRIPOS>MOLECULE
CHEMBL380683
   54    57     0     0     0
SMALL
USER_CHARGES

@<TRIPOS>ATOM
      1 C1         -0.1469   -3.9245    4.1298 C.3       1 <0>         0.0261
      2 O1         -0.0924   -3.5635    2.7482 O.3       1 <0>        -0.2998
      3 C2          0.5679   -2.4165    2.4353 C.ar      1 <0>         0.1695
      4 C3          1.1549   -1.6594    3.4370 C.ar      1 <0>        -0.2284
      5 C4          1.8291   -0.4884    3.1178 C.ar      1 <0>         0.2481
      6 C5          1.9162   -0.0752    1.7952 C.ar      1 <0>        -0.2665
      7 C6          1.3296   -0.8313    0.7925 C.ar      1 <0>         0.1707
      8 C7          0.6591   -2.0063    1.1107 C.ar      1 <0>         0.0077
      9 O2          0.0874   -2.7526    0.1255 O.3       1 <0>        -0.3103
     10 C8         -1.2671   -2.4498   -0.2145 C.3       1 <0>         0.0343
     11 O3          1.4142   -0.4259   -0.5028 O.3       1 <0>        -0.2998
     12 C9          2.1225    0.7888   -0.7575 C.3       1 <0>         0.0246
     13 N1          2.4210    0.2763    4.1301 N.pl3     1 <0>        -0.6388
     14 C10         2.9657   -0.3477    5.2414 C.ar      1 <0>         0.5809
     15 N2          3.0184   -1.6743    5.2684 N.ar      1 <0>        -0.5614
     16 C11         3.5289   -2.3165    6.3051 C.ar      1 <0>         0.2381
     17 C12         4.0150   -1.5711    7.3783 C.ar      1 <0>        -0.2468
     18 C13         4.6341   -1.8918    8.6658 C.2       1 <0>        -0.1489
     19 C14         4.8888   -0.7252    9.2778 C.2       1 <0>         0.0480
     20 N3          4.4809    0.3188    8.4825 N.pl3     1 <0>        -0.4264
     21 C15         3.9435   -0.1635    7.3167 C.ar      1 <0>         0.4109
     22 N4          3.4190    0.4001    6.2337 N.ar      1 <0>        -0.5717
     23 C16         4.5958    1.6690    8.8127 C.ar      1 <0>         0.1835
     24 C17         5.8493    2.2494    8.9494 C.ar      1 <0>        -0.1221
     25 C18         5.9610    3.5860    9.2757 C.ar      1 <0>        -0.0699
     26 C19         4.8266    4.3580    9.4691 C.ar      1 <0>        -0.1224
     27 C20         3.5740    3.7991    9.3381 C.ar      1 <0>        -0.0519
     28 C21         3.4450    2.4488    9.0025 C.ar      1 <0>        -0.1144
     29 C22         2.1081    1.8458    8.8547 C.2       1 <0>         0.5054
     30 O4          2.0003    0.6700    8.5677 O.2       1 <0>        -0.4824
     31 O5          1.0055    2.5985    9.0379 O.3       1 <0>        -0.3496
     32 C23        -0.2573    1.9489    8.8788 C.3       1 <0>         0.0384
     33 H1         -0.6472   -3.1359    4.6919 H         1 <0>         0.0528
     34 H2         -0.7008   -4.8568    4.2402 H         1 <0>         0.1017
     35 H3          0.8657   -4.0561    4.5111 H         1 <0>         0.0625
     36 H4          1.0876   -1.9802    4.4660 H         1 <0>         0.1496
     37 H5          2.4407    0.8358    1.5477 H         1 <0>         0.1363
     38 H6         -1.5994   -3.1158   -1.0108 H         1 <0>         0.0909
     39 H7         -1.9009   -2.5865    0.6616 H         1 <0>         0.0428
     40 H8         -1.3342   -1.4161   -0.5538 H         1 <0>         0.0426
     41 H9          2.1148    0.9964   -1.8275 H         1 <0>         0.1031
     42 H10         1.6409    1.6088   -0.2248 H         1 <0>         0.0563
     43 H11         3.1522    0.6878   -0.4144 H         1 <0>         0.0577
     44 H12         2.4498    1.2429    4.0538 H         1 <0>         0.4224
     45 H13         3.5682   -3.3956    6.3205 H         1 <0>         0.1735
     46 H14         4.8455   -2.8789    9.0496 H         1 <0>         0.1590
     47 H15         5.3460   -0.6220   10.2508 H         1 <0>         0.1783
     48 H16         6.7383    1.6544    8.8007 H         1 <0>         0.1408
     49 H17         6.9386    4.0327    9.3813 H         1 <0>         0.1415
     50 H18         4.9248    5.4028    9.7242 H         1 <0>         0.1411
     51 H19         2.6930    4.4050    9.4902 H         1 <0>         0.1470
     52 H20        -1.0594    2.6660    9.0535 H         1 <0>         0.1053
     53 H21        -0.3375    1.5536    7.8662 H         1 <0>         0.0595
     54 H22        -0.3383    1.1315    9.5954 H         1 <0>         0.0609
@<TRIPOS>BOND
     1    1    2 1
     2    1   33 1
     3    1   34 1
     4    1   35 1
     5    2    3 1
     6    3    8 ar
     7    3    4 ar
     8    4    5 ar
     9    4   36 1
    10    5    6 ar
    11    5   13 1
    12    6    7 ar
    13    6   37 1
    14    7    8 ar
    15    7   11 1
    16    8    9 1
    17    9   10 1
    18   10   38 1
    19   10   39 1
    20   10   40 1
    21   11   12 1
    22   12   41 1
    23   12   42 1
    24   12   43 1
    25   13   14 1
    26   13   44 1
    27   14   22 ar
    28   14   15 ar
    29   15   16 ar
    30   16   17 ar
    31   16   45 1
    32   17   21 ar
    33   17   18 1
    34   18   19 2
    35   18   46 1
    36   19   20 1
    37   19   47 1
    38   20   21 1
    39   20   23 1
    40   21   22 ar
    41   23   28 ar
    42   23   24 ar
    43   24   25 ar
    44   24   48 1
    45   25   26 ar
    46   25   49 1
    47   26   27 ar
    48   26   50 1
    49   27   28 ar
    50   27   51 1
    51   28   29 1
    52   29   30 2
    53   29   31 1
    54   31   32 1
    55   32   52 1
    56   32   53 1
    57   32   54 1
@<TRIPOS>MOLECULE
CHEMBL380226
   55    58     0     0     0
SMALL
USER_CHARGES

@<TRIPOS>ATOM
      1 C1         -0.1448   -3.9261    4.1279 C.3       1 <0>         0.0260
      2 O1         -0.0894   -3.5651    2.7464 O.3       1 <0>        -0.2991
      3 C2          0.5702   -2.4176    2.4341 C.ar      1 <0>         0.1688
      4 C3          1.1558   -1.6599    3.4363 C.ar      1 <0>        -0.2278
      5 C4          1.8292   -0.4884    3.1177 C.ar      1 <0>         0.2434
      6 C5          1.9163   -0.0746    1.7953 C.ar      1 <0>        -0.2609
      7 C6          1.3309   -0.8309    0.7921 C.ar      1 <0>         0.1714
      8 C7          0.6623   -2.0072    1.1095 C.ar      1 <0>         0.0104
      9 O2          0.0925   -2.7542    0.1238 O.3       1 <0>        -0.3103
     10 C8         -1.2621   -2.4532   -0.2176 C.3       1 <0>         0.0342
     11 O3          1.4160   -0.4252   -0.5031 O.3       1 <0>        -0.2990
     12 C9          2.1235    0.7900   -0.7571 C.3       1 <0>         0.0242
     13 N1          2.4204    0.2763    4.1305 N.pl3     1 <0>        -0.6343
     14 C10         2.9651   -0.3478    5.2417 C.ar      1 <0>         0.5788
     15 N2          3.0186   -1.6743    5.2683 N.ar      1 <0>        -0.5549
     16 C11         3.5291   -2.3166    6.3049 C.ar      1 <0>         0.2433
     17 C12         4.0145   -1.5713    7.3785 C.ar      1 <0>        -0.2532
     18 C13         4.6339   -1.8921    8.6658 C.2       1 <0>        -0.1310
     19 C14         4.8879   -0.7257    9.2782 C.2       1 <0>         0.0360
     20 N3          4.4794    0.3184    8.4832 N.pl3     1 <0>        -0.4107
     21 C15         3.9422   -0.1638    7.3174 C.ar      1 <0>         0.3813
     22 N4          3.4177    0.3999    6.2344 N.ar      1 <0>        -0.5484
     23 C16         4.5939    1.6700    8.8140 C.ar      1 <0>         0.3507
     24 C17         5.1654    2.0352   10.0314 C.ar      1 <0>        -0.1609
     25 C18         5.2755    3.3763   10.3523 C.ar      1 <0>        -0.0494
     26 C19         4.8096    4.3164    9.4439 C.ar      1 <0>        -0.1230
     27 C20         4.2495    3.8834    8.2458 C.ar      1 <0>         0.1100
     28 N5          4.1645    2.5874    7.9679 N.ar      1 <0>        -0.4584
     29 C21         3.7487    4.8778    7.2684 C.2       1 <0>         0.5843
     30 O4          3.8280    6.0651    7.5146 O.2       1 <0>        -0.5171
     31 N6          3.2051    4.4655    6.1060 N.am      1 <0>        -0.7119
     32 C22         2.7099    5.4488    5.1395 C.3       1 <0>         0.2163
     33 C23         2.1685    4.7501    3.9624 C.1       1 <0>         0.1901
     34 N7          1.7507    4.2109    3.0540 N.1       1 <0>        -0.3960
     35 H1         -0.6462   -3.1380    4.6896 H         1 <0>         0.0528
     36 H2         -0.6981   -4.8588    4.2378 H         1 <0>         0.1020
     37 H3          0.8675   -4.0570    4.5101 H         1 <0>         0.0621
     38 H4          1.0878   -1.9808    4.4653 H         1 <0>         0.1490
     39 H5          2.4400    0.8370    1.5483 H         1 <0>         0.1363
     40 H6         -1.8966   -2.5906    0.6579 H         1 <0>         0.0431
     41 H7         -1.3301   -1.4196   -0.5569 H         1 <0>         0.0429
     42 H8         -1.5927   -3.1196   -1.0142 H         1 <0>         0.0914
     43 H9          2.1163    0.9978   -1.8271 H         1 <0>         0.1034
     44 H10         1.6410    1.6096   -0.2246 H         1 <0>         0.0581
     45 H11         3.1531    0.6897   -0.4134 H         1 <0>         0.0570
     46 H12         2.4487    1.2429    4.0545 H         1 <0>         0.4214
     47 H13         3.5691   -3.3958    6.3199 H         1 <0>         0.1782
     48 H14         4.8453   -2.8793    9.0494 H         1 <0>         0.1663
     49 H15         5.3451   -0.6226   10.2512 H         1 <0>         0.1865
     50 H16         5.5183    1.2793   10.7172 H         1 <0>         0.1497
     51 H17         5.7143    3.6850   11.2896 H         1 <0>         0.1567
     52 H18         4.8805    5.3712    9.6643 H         1 <0>         0.1585
     53 H19         3.1417    3.5178    5.9095 H         1 <0>         0.4212
     54 H20         1.9238    6.0471    5.6002 H         1 <0>         0.1202
     55 H21         3.5283    6.0994    4.8313 H         1 <0>         0.1204
@<TRIPOS>BOND
     1    1    2 1
     2    1   35 1
     3    1   36 1
     4    1   37 1
     5    2    3 1
     6    3    8 ar
     7    3    4 ar
     8    4    5 ar
     9    4   38 1
    10    5    6 ar
    11    5   13 1
    12    6    7 ar
    13    6   39 1
    14    7    8 ar
    15    7   11 1
    16    8    9 1
    17    9   10 1
    18   10   40 1
    19   10   41 1
    20   10   42 1
    21   11   12 1
    22   12   43 1
    23   12   44 1
    24   12   45 1
    25   13   14 1
    26   13   46 1
    27   14   22 ar
    28   14   15 ar
    29   15   16 ar
    30   16   17 ar
    31   16   47 1
    32   17   21 ar
    33   17   18 1
    34   18   19 2
    35   18   48 1
    36   19   20 1
    37   19   49 1
    38   20   21 1
    39   20   23 1
    40   21   22 ar
    41   23   28 ar
    42   23   24 ar
    43   24   25 ar
    44   24   50 1
    45   25   26 ar
    46   25   51 1
    47   26   27 ar
    48   26   52 1
    49   27   28 ar
    50   27   29 1
    51   29   30 2
    52   29   31 am
    53   31   32 1
    54   31   53 1
    55   32   33 1
    56   32   54 1
    57   32   55 1
    58   33   34 3
@<TRIPOS>MOLECULE
CHEMBL379655
   52    55     0     0     0
SMALL
USER_CHARGES

@<TRIPOS>ATOM
      1 C1          3.7469   -3.8399   -1.9191 C.3       1 <0>         0.0258
      2 O1          2.5139   -3.5074   -1.2777 O.3       1 <0>        -0.2994
      3 C2          1.8852   -2.3768   -1.6969 C.ar      1 <0>         0.1696
      4 C3          2.4413   -1.6085   -2.7077 C.ar      1 <0>        -0.2286
      5 C4          1.7993   -0.4544   -3.1361 C.ar      1 <0>         0.2455
      6 C5          0.6002   -0.0688   -2.5522 C.ar      1 <0>        -0.2649
      7 C6          0.0428   -0.8361   -1.5414 C.ar      1 <0>         0.1710
      8 C7          0.6820   -1.9945   -1.1159 C.ar      1 <0>         0.0091
      9 O2          0.1321   -2.7518   -0.1267 O.3       1 <0>        -0.3104
     10 C8          0.5059   -2.4361    1.2159 C.3       1 <0>         0.0343
     11 O3         -1.1318   -0.4582   -0.9696 O.3       1 <0>        -0.2995
     12 C9         -1.7360    0.7404   -1.4599 C.3       1 <0>         0.0242
     13 N1          2.3616    0.3211   -4.1570 N.pl3     1 <0>        -0.6362
     14 C10         3.0677   -0.2891   -5.1820 C.ar      1 <0>         0.5807
     15 N2          3.0977   -1.6156   -5.2365 N.ar      1 <0>        -0.5579
     16 C11         3.7569   -2.2451   -6.1941 C.ar      1 <0>         0.2429
     17 C12         4.4256   -1.4864   -7.1537 C.ar      1 <0>        -0.2498
     18 C13         5.2398   -1.7906   -8.3314 C.2       1 <0>        -0.1504
     19 C14         5.6136   -0.6152   -8.8610 C.2       1 <0>         0.0451
     20 N3          5.1023    0.4175   -8.1141 N.pl3     1 <0>        -0.4176
     21 C15         4.3732   -0.0789   -7.0659 C.ar      1 <0>         0.3668
     22 N4          3.6822    0.4712   -6.0726 N.ar      1 <0>        -0.5709
     23 C16         5.2981    1.7804   -8.3844 C.ar      1 <0>         0.1161
     24 C17         4.2116    2.6441   -8.4192 C.ar      1 <0>        -0.0810
     25 C18         4.4036    3.9849   -8.6851 C.ar      1 <0>        -0.0830
     26 C19         5.6847    4.4702   -8.9179 C.ar      1 <0>        -0.0796
     27 C20         6.7717    3.6054   -8.8830 C.ar      1 <0>        -0.1193
     28 C21         6.5791    2.2658   -8.6114 C.ar      1 <0>        -0.0957
     29 S1          5.9306    6.1815   -9.2580 S.3       1 <0>        -0.1062
     30 C22         7.7239    6.3302   -9.4871 C.3       1 <0>        -0.1472
     31 H1          3.5753   -3.9788   -2.9865 H         1 <0>         0.0623
     32 H2          4.4640   -3.0329   -1.7684 H         1 <0>         0.0531
     33 H3          4.1418   -4.7615   -1.4916 H         1 <0>         0.1020
     34 H4          3.3744   -1.9074   -3.1618 H         1 <0>         0.1491
     35 H5          0.1017    0.8295   -2.8855 H         1 <0>         0.1372
     36 H6         -0.0017   -3.1129    1.9031 H         1 <0>         0.0912
     37 H7          1.5845   -2.5459    1.3282 H         1 <0>         0.0431
     38 H8          0.2200   -1.4085    1.4405 H         1 <0>         0.0429
     39 H9         -1.0547    1.5781   -1.3107 H         1 <0>         0.0568
     40 H10        -1.9497    0.6309   -2.5231 H         1 <0>         0.0580
     41 H11        -2.6644    0.9265   -0.9200 H         1 <0>         0.1034
     42 H12         2.2572    1.2854   -4.1471 H         1 <0>         0.4247
     43 H13         3.7772   -3.3243   -6.2320 H         1 <0>         0.1767
     44 H14         5.4919   -2.7729   -8.7029 H         1 <0>         0.1615
     45 H15         6.2258   -0.4990   -9.7431 H         1 <0>         0.1811
     46 H16         3.2159    2.2668   -8.2386 H         1 <0>         0.1335
     47 H17         3.5584    4.6566   -8.7125 H         1 <0>         0.1379
     48 H18         7.7676    3.9820   -9.0639 H         1 <0>         0.1333
     49 H19         7.4243    1.5943   -8.5798 H         1 <0>         0.1341
     50 H20         7.9776    7.3676   -9.7050 H         1 <0>         0.1127
     51 H21         8.2338    6.0150   -8.5767 H         1 <0>         0.0857
     52 H22         8.0379    5.6973  -10.3171 H         1 <0>         0.0861
@<TRIPOS>BOND
     1    1    2 1
     2    1   31 1
     3    1   32 1
     4    1   33 1
     5    2    3 1
     6    3    8 ar
     7    3    4 ar
     8    4    5 ar
     9    4   34 1
    10    5    6 ar
    11    5   13 1
    12    6    7 ar
    13    6   35 1
    14    7    8 ar
    15    7   11 1
    16    8    9 1
    17    9   10 1
    18   10   36 1
    19   10   37 1
    20   10   38 1
    21   11   12 1
    22   12   39 1
    23   12   40 1
    24   12   41 1
    25   13   14 1
    26   13   42 1
    27   14   22 ar
    28   14   15 ar
    29   15   16 ar
    30   16   17 ar
    31   16   43 1
    32   17   21 ar
    33   17   18 1
    34   18   19 2
    35   18   44 1
    36   19   20 1
    37   19   45 1
    38   20   21 1
    39   20   23 1
    40   21   22 ar
    41   23   28 ar
    42   23   24 ar
    43   24   25 ar
    44   24   46 1
    45   25   26 ar
    46   25   47 1
    47   26   27 ar
    48   26   29 1
    49   27   28 ar
    50   27   48 1
    51   28   49 1
    52   29   30 1
    53   30   50 1
    54   30   51 1
    55   30   52 1
@<TRIPOS>MOLECULE
CHEMBL207084
   61    64     0     0     0
SMALL
USER_CHARGES

@<TRIPOS>ATOM
      1 C1          3.7489   -3.8383   -1.9189 C.3       1 <0>         0.0259
      2 O1          2.5164   -3.5060   -1.2766 O.3       1 <0>        -0.2981
      3 C2          1.8867   -2.3759   -1.6961 C.ar      1 <0>         0.1698
      4 C3          2.4416   -1.6081   -2.7079 C.ar      1 <0>        -0.2282
      5 C4          1.7989   -0.4544   -3.1363 C.ar      1 <0>         0.2402
      6 C5          0.5999   -0.0691   -2.5520 C.ar      1 <0>        -0.2636
      7 C6          0.0438   -0.8359   -1.5400 C.ar      1 <0>         0.1712
      8 C7          0.6839   -1.9937   -1.1143 C.ar      1 <0>         0.0126
      9 O2          0.1353   -2.7506   -0.1240 O.3       1 <0>        -0.3101
     10 C8          0.5102   -2.4335    1.2180 C.3       1 <0>         0.0343
     11 O3         -1.1302   -0.4579   -0.9671 O.3       1 <0>        -0.2982
     12 C9         -1.7351    0.7403   -1.4575 C.3       1 <0>         0.0244
     13 N1          2.3604    0.3211   -4.1577 N.pl3     1 <0>        -0.6344
     14 C10         3.0661   -0.2891   -5.1829 C.ar      1 <0>         0.5852
     15 N2          3.0965   -1.6155   -5.2373 N.ar      1 <0>        -0.5551
     16 C11         3.7554   -2.2449   -6.1951 C.ar      1 <0>         0.2476
     17 C12         4.4234   -1.4860   -7.1552 C.ar      1 <0>        -0.2501
     18 C13         5.2370   -1.7903   -8.3334 C.2       1 <0>        -0.1396
     19 C14         5.6102   -0.6153   -8.8635 C.2       1 <0>         0.0379
     20 N3          5.0990    0.4179   -8.1165 N.pl3     1 <0>        -0.4250
     21 C15         4.3704   -0.0788   -7.0676 C.ar      1 <0>         0.3675
     22 N4          3.6799    0.4712   -6.0741 N.ar      1 <0>        -0.5762
     23 C16         5.2941    1.7790   -8.3870 C.ar      1 <0>         0.1291
     24 C17         4.2065    2.6434   -8.4214 C.ar      1 <0>        -0.0688
     25 C18         4.3935    3.9867   -8.6877 C.ar      1 <0>        -0.1046
     26 C19         5.6618    4.4788   -8.9207 C.ar      1 <0>        -0.0840
     27 C20         6.7607    3.6188   -8.8879 C.ar      1 <0>        -0.1313
     28 C21         6.5721    2.2639   -8.6144 C.ar      1 <0>        -0.0564
     29 C22         8.1205    4.1429   -9.1376 C.2       1 <0>         0.5737
     30 O4          9.0760    3.3922   -9.1085 O.2       1 <0>        -0.5159
     31 N5          8.3005    5.4531   -9.3975 N.am      1 <0>        -0.7322
     32 C23         9.6479    5.9724   -9.6449 C.3       1 <0>         0.0920
     33 C24         9.5734    7.4772   -9.9116 C.3       1 <0>        -0.0203
     34 N6         10.9245    7.9979  -10.1597 N.4       1 <0>        -0.6316
     35 H1          3.5764   -3.9781   -2.9860 H         1 <0>         0.0620
     36 H2          4.4658   -3.0310   -1.7694 H         1 <0>         0.0526
     37 H3          4.1447   -4.7594   -1.4911 H         1 <0>         0.1031
     38 H4          3.3743   -1.9072   -3.1630 H         1 <0>         0.1485
     39 H5          0.1006    0.8284   -2.8857 H         1 <0>         0.1370
     40 H6          0.2240   -1.4059    1.4421 H         1 <0>         0.0433
     41 H7          0.0035   -3.1101    1.9063 H         1 <0>         0.0928
     42 H8          1.5890   -2.5428    1.3294 H         1 <0>         0.0435
     43 H9         -1.0539    1.5782   -1.3095 H         1 <0>         0.0563
     44 H10        -1.9500    0.6301   -2.5204 H         1 <0>         0.0579
     45 H11        -2.6630    0.9265   -0.9166 H         1 <0>         0.1045
     46 H12         2.2557    1.2853   -4.1479 H         1 <0>         0.4240
     47 H13         3.7761   -3.3241   -6.2329 H         1 <0>         0.1792
     48 H14         5.4888   -2.7726   -8.7050 H         1 <0>         0.1641
     49 H15         6.2219   -0.4992   -9.7460 H         1 <0>         0.1821
     50 H16         3.2117    2.2642   -8.2399 H         1 <0>         0.1382
     51 H17         3.5443    4.6535   -8.7138 H         1 <0>         0.1435
     52 H18         5.8038    5.5290   -9.1288 H         1 <0>         0.1300
     53 H19         7.4190    1.5944   -8.5839 H         1 <0>         0.1461
     54 H20         7.5380    6.0522   -9.4207 H         1 <0>         0.4089
     55 H21        10.2741    5.7887   -8.7719 H         1 <0>         0.0927
     56 H22        10.0771    5.4705  -10.5121 H         1 <0>         0.0931
     57 H23         8.9472    7.6609  -10.7846 H         1 <0>         0.1424
     58 H24         9.1442    7.9790   -9.0444 H         1 <0>         0.1422
     59 H25        11.5041    7.8278   -9.3515 H         1 <0>         0.4397
     60 H26        11.3218    7.5333  -10.9624 H         1 <0>         0.4397
     61 H27        10.8754    8.9902  -10.3355 H         1 <0>         0.4450
@<TRIPOS>BOND
     1    1    2 1
     2    1   35 1
     3    1   36 1
     4    1   37 1
     5    2    3 1
     6    3    8 ar
     7    3    4 ar
     8    4    5 ar
     9    4   38 1
    10    5    6 ar
    11    5   13 1
    12    6    7 ar
    13    6   39 1
    14    7    8 ar
    15    7   11 1
    16    8    9 1
    17    9   10 1
    18   10   40 1
    19   10   41 1
    20   10   42 1
    21   11   12 1
    22   12   43 1
    23   12   44 1
    24   12   45 1
    25   13   14 1
    26   13   46 1
    27   14   22 ar
    28   14   15 ar
    29   15   16 ar
    30   16   17 ar
    31   16   47 1
    32   17   21 ar
    33   17   18 1
    34   18   19 2
    35   18   48 1
    36   19   20 1
    37   19   49 1
    38   20   21 1
    39   20   23 1
    40   21   22 ar
    41   23   28 ar
    42   23   24 ar
    43   24   25 ar
    44   24   50 1
    45   25   26 ar
    46   25   51 1
    47   26   27 ar
    48   26   52 1
    49   27   28 ar
    50   27   29 1
    51   28   53 1
    52   29   30 2
    53   29   31 am
    54   31   32 1
    55   31   54 1
    56   32   33 1
    57   32   55 1
    58   32   56 1
    59   33   34 1
    60   33   57 1
    61   33   58 1
    62   34   59 1
    63   34   60 1
    64   34   61 1
@<TRIPOS>MOLECULE
CHEMBL209044
   58    62     0     0     0
SMALL
USER_CHARGES

@<TRIPOS>ATOM
      1 C1         -0.1470   -3.9244    4.1298 C.3       1 <0>         0.0252
      2 O1         -0.0925   -3.5635    2.7482 O.3       1 <0>        -0.3008
      3 C2          0.5679   -2.4165    2.4353 C.ar      1 <0>         0.1698
      4 C3          1.1549   -1.6593    3.4370 C.ar      1 <0>        -0.2287
      5 C4          1.8291   -0.4884    3.1178 C.ar      1 <0>         0.2510
      6 C5          1.9162   -0.0752    1.7952 C.ar      1 <0>        -0.2665
      7 C6          1.3296   -0.8313    0.7925 C.ar      1 <0>         0.1701
      8 C7          0.6591   -2.0063    1.1107 C.ar      1 <0>         0.0055
      9 O2          0.0871   -2.7524    0.1255 O.3       1 <0>        -0.3108
     10 C8         -1.2674   -2.4491   -0.2144 C.3       1 <0>         0.0341
     11 O3          1.4143   -0.4259   -0.5029 O.3       1 <0>        -0.3010
     12 C9          2.1228    0.7887   -0.7575 C.3       1 <0>         0.0244
     13 N1          2.4210    0.2763    4.1301 N.pl3     1 <0>        -0.6377
     14 C10         2.9657   -0.3478    5.2414 C.ar      1 <0>         0.5754
     15 N2          3.0183   -1.6744    5.2684 N.ar      1 <0>        -0.5609
     16 C11         3.5284   -2.3167    6.3052 C.ar      1 <0>         0.2383
     17 C12         4.0142   -1.5715    7.3787 C.ar      1 <0>        -0.2473
     18 C13         4.6332   -1.8920    8.6659 C.2       1 <0>        -0.1598
     19 C14         4.8877   -0.7249    9.2776 C.2       1 <0>         0.0545
     20 N3          4.4799    0.3182    8.4822 N.pl3     1 <0>        -0.4128
     21 C15         3.9429   -0.1637    7.3172 C.ar      1 <0>         0.3670
     22 N4          3.4190    0.4000    6.2336 N.ar      1 <0>        -0.5655
     23 C16         4.5955    1.6747    8.8135 C.ar      1 <0>         0.1152
     24 C17         5.1545    2.5668    7.9079 C.ar      1 <0>        -0.1120
     25 C18         5.2671    3.9032    8.2373 C.ar      1 <0>        -0.1026
     26 C19         4.8239    4.3534    9.4676 C.ar      1 <0>        -0.1085
     27 C20         4.2673    3.4675   10.3715 C.ar      1 <0>        -0.0504
     28 C21         4.1463    2.1306   10.0454 C.ar      1 <0>        -0.1123
     29 C22         3.7861    3.9621   11.7112 C.3       1 <0>        -0.0734
     30 C23         2.3175    4.3777   11.6039 C.3       1 <0>         0.0088
     31 C24         1.8362    4.8723   12.9436 C.2       1 <0>         0.0500
     32 N5          1.8824    6.1196   13.3884 N.2       1 <0>        -0.3879
     33 N6          1.3748    6.1297   14.5736 N.2       1 <0>        -0.1992
     34 N7          1.0133    4.9339   14.8853 N.2       1 <0>        -0.1992
     35 N8          1.2802    4.1446   13.9013 N.2       1 <0>        -0.3884
     36 H1         -0.6472   -3.1358    4.6919 H         1 <0>         0.0543
     37 H2         -0.7009   -4.8567    4.2402 H         1 <0>         0.1012
     38 H3          0.8656   -4.0561    4.5112 H         1 <0>         0.0629
     39 H4          1.0876   -1.9801    4.4660 H         1 <0>         0.1503
     40 H5          2.4408    0.8358    1.5477 H         1 <0>         0.1368
     41 H6         -1.9012   -2.5856    0.6618 H         1 <0>         0.0430
     42 H7         -1.3341   -1.4154   -0.5536 H         1 <0>         0.0424
     43 H8         -1.6000   -3.1151   -1.0107 H         1 <0>         0.0894
     44 H9          3.1524    0.6876   -0.4144 H         1 <0>         0.0577
     45 H10         2.1151    0.9962   -1.8276 H         1 <0>         0.1018
     46 H11         1.6411    1.6087   -0.2249 H         1 <0>         0.0570
     47 H12         2.4498    1.2429    4.0538 H         1 <0>         0.4248
     48 H13         3.5675   -3.3959    6.3205 H         1 <0>         0.1745
     49 H14         4.8443   -2.8790    9.0502 H         1 <0>         0.1598
     50 H15         5.3448   -0.6211   10.2506 H         1 <0>         0.1816
     51 H16         5.5011    2.2159    6.9471 H         1 <0>         0.1224
     52 H17         5.7021    4.5974    7.5336 H         1 <0>         0.1290
     53 H18         4.9131    5.3989    9.7229 H         1 <0>         0.1315
     54 H19         3.7070    1.4400   10.7500 H         1 <0>         0.1309
     55 H20         3.8854    3.1663   12.4494 H         1 <0>         0.0744
     56 H21         4.3848    4.8195   12.0184 H         1 <0>         0.0771
     57 H22         2.2181    5.1735   10.8657 H         1 <0>         0.0676
     58 H23         1.7187    3.5203   11.2966 H         1 <0>         0.0656
@<TRIPOS>BOND
     1    1    2 1
     2    1   36 1
     3    1   37 1
     4    1   38 1
     5    2    3 1
     6    3    8 ar
     7    3    4 ar
     8    4    5 ar
     9    4   39 1
    10    5    6 ar
    11    5   13 1
    12    6    7 ar
    13    6   40 1
    14    7    8 ar
    15    7   11 1
    16    8    9 1
    17    9   10 1
    18   10   41 1
    19   10   42 1
    20   10   43 1
    21   11   12 1
    22   12   44 1
    23   12   45 1
    24   12   46 1
    25   13   14 1
    26   13   47 1
    27   14   22 ar
    28   14   15 ar
    29   15   16 ar
    30   16   17 ar
    31   16   48 1
    32   17   21 ar
    33   17   18 1
    34   18   19 2
    35   18   49 1
    36   19   20 1
    37   19   50 1
    38   20   21 1
    39   20   23 1
    40   21   22 ar
    41   23   28 ar
    42   23   24 ar
    43   24   25 ar
    44   24   51 1
    45   25   26 ar
    46   25   52 1
    47   26   27 ar
    48   26   53 1
    49   27   28 ar
    50   27   29 1
    51   28   54 1
    52   29   30 1
    53   29   55 1
    54   29   56 1
    55   30   57 1
    56   30   58 1
    57   30   31 1
    58   31   32 2
    59   31   35 1
    60   32   33 1
    61   33   34 2
    62   34   35 1
@<TRIPOS>MOLECULE
CHEMBL382809
   45    49     0     0     0
SMALL
USER_CHARGES

@<TRIPOS>ATOM
      1 C1         -0.0021    1.2841   -1.0918 C.ar      1 <0>        -0.0473
      2 C2          1.2099    1.9568   -1.1696 C.ar      1 <0>        -0.1905
      3 C3          2.3856    1.2528   -1.0005 C.ar      1 <0>         0.1347
      4 N1          2.3690   -0.0456   -0.7669 N.ar      1 <0>        -0.4786
      5 C4          1.2345   -0.7218   -0.6857 C.ar      1 <0>         0.3466
      6 C5          0.0133   -0.0775   -0.8457 C.ar      1 <0>        -0.1895
      7 N2          1.2644   -2.0955   -0.4368 N.pl3     1 <0>        -0.4118
      8 C6          0.1569   -2.9033   -0.3369 C.2       1 <0>         0.0350
      9 C7          0.5345   -4.1675   -0.0935 C.2       1 <0>        -0.1347
     10 C8          1.9974   -4.1710   -0.0325 C.ar      1 <0>        -0.2581
     11 C9          2.4031   -2.8390   -0.2619 C.ar      1 <0>         0.3812
     12 N3          3.7022   -2.5614   -0.2650 N.ar      1 <0>        -0.5446
     13 C10         4.5929   -3.5177   -0.0601 C.ar      1 <0>         0.5774
     14 N4          4.2443   -4.7805    0.1547 N.ar      1 <0>        -0.5570
     15 C11         2.9728   -5.1429    0.1829 C.ar      1 <0>         0.2415
     16 N5          5.9397   -3.1893   -0.0706 N.pl3     1 <0>        -0.6351
     17 C12         6.9053   -4.1960    0.0207 C.ar      1 <0>         0.1683
     18 C13         6.6768   -5.4264   -0.5762 C.ar      1 <0>        -0.1158
     19 C14         7.6318   -6.4195   -0.4836 C.ar      1 <0>        -0.1007
     20 C15         8.8049   -6.1825    0.2040 C.ar      1 <0>        -0.1395
     21 C16         9.0386   -4.9520    0.8052 C.ar      1 <0>        -0.0574
     22 C17         8.0959   -3.9548    0.7070 C.ar      1 <0>        -0.1035
     23 C18         8.2917   -2.5905    1.3145 C.3       1 <0>        -0.0810
     24 C19         9.4009   -2.6236    2.3639 C.3       1 <0>        -0.1176
     25 C20        10.6378   -3.2803    1.7398 C.3       1 <0>        -0.1202
     26 C21        10.3379   -4.7690    1.5453 C.3       1 <0>        -0.0799
     27 H1         -0.9359    1.8124   -1.2161 H         1 <0>         0.1448
     28 H2          1.2328    3.0195   -1.3608 H         1 <0>         0.1424
     29 H3          3.3310    1.7715   -1.0605 H         1 <0>         0.1648
     30 H4         -0.9110   -0.6320   -0.7785 H         1 <0>         0.1413
     31 H5         -0.8653   -2.5700   -0.4389 H         1 <0>         0.1841
     32 H6         -0.1164   -5.0199    0.0336 H         1 <0>         0.1646
     33 H7          2.6965   -6.1723    0.3574 H         1 <0>         0.1765
     34 H8          6.2120   -2.2610   -0.1413 H         1 <0>         0.4219
     35 H9          5.7560   -5.6074   -1.1108 H         1 <0>         0.1315
     36 H10         7.4611   -7.3795   -0.9479 H         1 <0>         0.1236
     37 H11         9.5489   -6.9621    0.2757 H         1 <0>         0.1200
     38 H12         8.5601   -1.8829    0.5300 H         1 <0>         0.0730
     39 H13         7.3620   -2.2695    1.7843 H         1 <0>         0.0705
     40 H14         9.6424   -1.6072    2.6749 H         1 <0>         0.0672
     41 H15         9.0730   -3.2038    3.2264 H         1 <0>         0.0658
     42 H16        10.8563   -2.8132    0.7795 H         1 <0>         0.0665
     43 H17        11.4914   -3.1642    2.4076 H         1 <0>         0.0677
     44 H18        10.2725   -5.2642    2.5141 H         1 <0>         0.0773
     45 H19        11.1467   -5.2165    0.9675 H         1 <0>         0.0744
@<TRIPOS>BOND
     1    1    6 ar
     2    1    2 ar
     3    1   27 1
     4    2    3 ar
     5    2   28 1
     6    3    4 ar
     7    3   29 1
     8    4    5 ar
     9    5    6 ar
    10    5    7 1
    11    6   30 1
    12    7   11 1
    13    7    8 1
    14    8    9 2
    15    8   31 1
    16    9   10 1
    17    9   32 1
    18   10   15 ar
    19   10   11 ar
    20   11   12 ar
    21   12   13 ar
    22   13   14 ar
    23   13   16 1
    24   14   15 ar
    25   15   33 1
    26   16   17 1
    27   16   34 1
    28   17   22 ar
    29   17   18 ar
    30   18   19 ar
    31   18   35 1
    32   19   20 ar
    33   19   36 1
    34   20   21 ar
    35   20   37 1
    36   21   26 1
    37   21   22 ar
    38   22   23 1
    39   23   24 1
    40   23   38 1
    41   23   39 1
    42   24   25 1
    43   24   40 1
    44   24   41 1
    45   25   26 1
    46   25   42 1
    47   25   43 1
    48   26   44 1
    49   26   45 1
@<TRIPOS>MOLECULE
CHEMBL207131
   50    53     0     0     0
SMALL
USER_CHARGES

@<TRIPOS>ATOM
      1 C1          3.7489   -3.8384   -1.9189 C.3       1 <0>         0.0253
      2 O1          2.5164   -3.5060   -1.2767 O.3       1 <0>        -0.3015
      3 C2          1.8867   -2.3759   -1.6961 C.ar      1 <0>         0.1696
      4 C3          2.4416   -1.6081   -2.7079 C.ar      1 <0>        -0.2292
      5 C4          1.7989   -0.4544   -3.1363 C.ar      1 <0>         0.2543
      6 C5          0.5999   -0.0691   -2.5520 C.ar      1 <0>        -0.2678
      7 C6          0.0438   -0.8359   -1.5400 C.ar      1 <0>         0.1700
      8 C7          0.6839   -1.9937   -1.1143 C.ar      1 <0>         0.0033
      9 O2          0.1353   -2.7506   -0.1240 O.3       1 <0>        -0.3107
     10 C8          0.5102   -2.4335    1.2180 C.3       1 <0>         0.0341
     11 O3         -1.1302   -0.4578   -0.9671 O.3       1 <0>        -0.3015
     12 C9         -1.7351    0.7403   -1.4575 C.3       1 <0>         0.0245
     13 N1          2.3604    0.3211   -4.1577 N.pl3     1 <0>        -0.6390
     14 C10         3.0661   -0.2891   -5.1829 C.ar      1 <0>         0.5705
     15 N2          3.0964   -1.6155   -5.2373 N.ar      1 <0>        -0.5630
     16 C11         3.7550   -2.2449   -6.1954 C.ar      1 <0>         0.2350
     17 C12         4.4226   -1.4860   -7.1557 C.ar      1 <0>        -0.2456
     18 C13         5.2354   -1.7903   -8.3345 C.2       1 <0>        -0.1685
     19 C14         5.6083   -0.6153   -8.8649 C.2       1 <0>         0.0620
     20 N3          5.0976    0.4179   -8.1175 N.pl3     1 <0>        -0.4053
     21 C15         4.3698   -0.0788   -7.0681 C.ar      1 <0>         0.3644
     22 N4          3.6799    0.4712   -6.0741 N.ar      1 <0>        -0.5627
     23 C16         5.2925    1.7791   -8.3881 C.ar      1 <0>         0.0875
     24 C17         4.2046    2.6435   -8.4218 C.ar      1 <0>        -0.1073
     25 C18         4.3906    3.9871   -8.6882 C.ar      1 <0>        -0.1243
     26 C19         5.6578    4.4800   -8.9230 C.ar      1 <0>        -0.0764
     27 C20         6.7583    3.6198   -8.8914 C.ar      1 <0>        -0.1192
     28 C21         6.5701    2.2637   -8.6163 C.ar      1 <0>        -0.0778
     29 C22         8.1149    4.1432   -9.1425 C.2       1 <0>         0.5213
     30 O4          8.2776    5.3320   -9.3788 O.co2     1 <0>        -0.6810
     31 O5          9.0765    3.3882   -9.1144 O.co2     1 <0>        -0.6828
     32 H1          3.5763   -3.9781   -2.9861 H         1 <0>         0.0633
     33 H2          4.4657   -3.0310   -1.7695 H         1 <0>         0.0542
     34 H3          4.1446   -4.7595   -1.4912 H         1 <0>         0.1005
     35 H4          3.3743   -1.9072   -3.1630 H         1 <0>         0.1507
     36 H5          0.1006    0.8285   -2.8857 H         1 <0>         0.1366
     37 H6          0.0036   -3.1101    1.9063 H         1 <0>         0.0887
     38 H7          1.5890   -2.5428    1.3294 H         1 <0>         0.0426
     39 H8          0.2240   -1.4059    1.4421 H         1 <0>         0.0420
     40 H9         -1.9500    0.6301   -2.5204 H         1 <0>         0.0578
     41 H10        -2.6629    0.9266   -0.9166 H         1 <0>         0.1013
     42 H11        -1.0538    1.5782   -1.3095 H         1 <0>         0.0569
     43 H12         2.2557    1.2853   -4.1479 H         1 <0>         0.4244
     44 H13         3.7756   -3.3241   -6.2332 H         1 <0>         0.1731
     45 H14         5.4872   -2.7726   -8.7061 H         1 <0>         0.1587
     46 H15         6.2194   -0.4992   -9.7478 H         1 <0>         0.1816
     47 H16         3.2101    2.2638   -8.2396 H         1 <0>         0.1176
     48 H17         3.5410    4.6534   -8.7129 H         1 <0>         0.1244
     49 H18         5.7989    5.5303   -9.1314 H         1 <0>         0.1339
     50 H19         7.4171    1.5942   -8.5860 H         1 <0>         0.1336
@<TRIPOS>BOND
     1    1    2 1
     2    1   32 1
     3    1   33 1
     4    1   34 1
     5    2    3 1
     6    3    8 ar
     7    3    4 ar
     8    4    5 ar
     9    4   35 1
    10    5    6 ar
    11    5   13 1
    12    6    7 ar
    13    6   36 1
    14    7    8 ar
    15    7   11 1
    16    8    9 1
    17    9   10 1
    18   10   37 1
    19   10   38 1
    20   10   39 1
    21   11   12 1
    22   12   40 1
    23   12   41 1
    24   12   42 1
    25   13   14 1
    26   13   43 1
    27   14   22 ar
    28   14   15 ar
    29   15   16 ar
    30   16   17 ar
    31   16   44 1
    32   17   21 ar
    33   17   18 1
    34   18   19 2
    35   18   45 1
    36   19   20 1
    37   19   46 1
    38   20   21 1
    39   20   23 1
    40   21   22 ar
    41   23   28 ar
    42   23   24 ar
    43   24   25 ar
    44   24   47 1
    45   25   26 ar
    46   25   48 1
    47   26   27 ar
    48   26   49 1
    49   27   28 ar
    50   27   29 1
    51   28   50 1
    52   29   30 2
    53   29   31 1
@<TRIPOS>MOLECULE
CHEMBL425418
   66    69     0     0     0
SMALL
USER_CHARGES

@<TRIPOS>ATOM
      1 C1         -0.0108    1.4475    0.4270 C.3       1 <0>        -0.0495
      2 N1         -0.0006   -0.0053    0.6439 N.4       1 <0>        -0.3817
      3 C2          0.6072   -0.3015    1.9480 C.3       1 <0>        -0.0567
      4 C3         -1.3786   -0.5138    0.6190 C.3       1 <0>        -0.0269
      5 C4         -1.3608   -2.0403    0.7200 C.3       1 <0>         0.0942
      6 N2         -2.7350   -2.5474    0.6952 N.am      1 <0>        -0.7162
      7 C5         -2.9657   -3.8731    0.7725 C.2       1 <0>         0.5888
      8 O1         -2.0337   -4.6477    0.8627 O.2       1 <0>        -0.5129
      9 C6         -4.3554   -4.3859    0.7474 C.ar      1 <0>         0.0991
     10 C7         -4.5864   -5.7559    0.8334 C.ar      1 <0>        -0.1203
     11 C8         -5.8918   -6.2251    0.8095 C.ar      1 <0>        -0.0464
     12 C9         -6.9224   -5.3083    0.7003 C.ar      1 <0>        -0.1541
     13 C10        -6.6213   -3.9506    0.6183 C.ar      1 <0>         0.3525
     14 N3         -5.3691   -3.5339    0.6487 N.ar      1 <0>        -0.4605
     15 N4         -7.6560   -3.0196    0.5075 N.pl3     1 <0>        -0.4102
     16 C11        -8.9950   -3.3283    0.4764 C.2       1 <0>         0.0374
     17 C12        -9.7199   -2.2051    0.3638 C.2       1 <0>        -0.1279
     18 C13        -8.7728   -1.0894    0.3194 C.ar      1 <0>        -0.2463
     19 C14        -7.4869   -1.6617    0.4196 C.ar      1 <0>         0.3790
     20 N5         -6.4299   -0.8570    0.4092 N.ar      1 <0>        -0.5512
     21 C15        -6.5853    0.4530    0.3101 C.ar      1 <0>         0.5731
     22 N6         -7.7809    1.0227    0.2180 N.ar      1 <0>        -0.5549
     23 C16        -8.8854    0.2956    0.2117 C.ar      1 <0>         0.2466
     24 N7         -5.4586    1.2602    0.3025 N.pl3     1 <0>        -0.6368
     25 C17        -5.5956    2.6534    0.3168 C.ar      1 <0>         0.2396
     26 C18        -6.6493    3.2399    1.0048 C.ar      1 <0>        -0.2268
     27 C19        -6.7853    4.6192    1.0198 C.ar      1 <0>         0.1742
     28 C20        -5.8667    5.4151    0.3459 C.ar      1 <0>         0.0139
     29 C21        -4.8123    4.8273   -0.3426 C.ar      1 <0>         0.1698
     30 C22        -4.6746    3.4481   -0.3523 C.ar      1 <0>        -0.2712
     31 O2         -3.9132    5.6052   -1.0027 O.3       1 <0>        -0.2963
     32 C23        -2.8549    4.9337   -1.6891 C.3       1 <0>         0.0275
     33 O3         -6.0000    6.7703    0.3598 O.3       1 <0>        -0.3096
     34 C24        -5.3453    7.4757    1.4161 C.3       1 <0>         0.0351
     35 O4         -7.8177    5.1935    1.6934 O.3       1 <0>        -0.2965
     36 C25        -8.7241    4.3149    2.3631 C.3       1 <0>         0.0250
     37 H1          1.0117    1.8248    0.4454 H         1 <0>         0.1301
     38 H2         -0.4618    1.6673   -0.5407 H         1 <0>         0.1245
     39 H3         -0.5898    1.9285    1.2154 H         1 <0>         0.1245
     40 H4          1.6296    0.0758    1.9664 H         1 <0>         0.1299
     41 H5          0.0282    0.1795    2.7364 H         1 <0>         0.1251
     42 H6          0.6147   -1.3795    2.1089 H         1 <0>         0.1268
     43 H7         -1.9336   -0.1004    1.4611 H         1 <0>         0.1387
     44 H8         -1.8587   -0.2169   -0.3134 H         1 <0>         0.1387
     45 H9         -0.8058   -2.4537   -0.1221 H         1 <0>         0.0929
     46 H10        -0.8807   -2.3372    1.6524 H         1 <0>         0.0932
     47 H11        -3.4789   -1.9291    0.6232 H         1 <0>         0.4223
     48 H12        -3.7593   -6.4453    0.9174 H         1 <0>         0.1580
     49 H13        -6.0990   -7.2830    0.8742 H         1 <0>         0.1602
     50 H14        -7.9494   -5.6418    0.6786 H         1 <0>         0.1535
     51 H15        -9.4029   -4.3267    0.5339 H         1 <0>         0.1892
     52 H16       -10.7967   -2.1368    0.3153 H         1 <0>         0.1697
     53 H17        -9.8548    0.7660    0.1377 H         1 <0>         0.1808
     54 H18        -4.5752    0.8599    0.2873 H         1 <0>         0.4128
     55 H19        -7.3633    2.6213    1.5282 H         1 <0>         0.1506
     56 H20        -3.8527    2.9913   -0.8835 H         1 <0>         0.1306
     57 H21        -3.2755    4.2682   -2.4429 H         1 <0>         0.0576
     58 H22        -2.2110    5.6688   -2.1720 H         1 <0>         0.1046
     59 H23        -2.2709    4.3520   -0.9759 H         1 <0>         0.0478
     60 H24        -5.5316    8.5444    1.3094 H         1 <0>         0.0947
     61 H25        -5.7322    7.1335    2.3760 H         1 <0>         0.0445
     62 H26        -4.2727    7.2874    1.3687 H         1 <0>         0.0419
     63 H27        -9.1847    3.6455    1.6366 H         1 <0>         0.0637
     64 H28        -8.1810    3.7285    3.1042 H         1 <0>         0.0535
     65 H29        -9.4980    4.9005    2.8593 H         1 <0>         0.1057
     66 H30         0.5354   -0.4506   -0.0859 H         1 <0>         0.4308
@<TRIPOS>BOND
     1    1    2 1
     2    1   37 1
     3    1   38 1
     4    1   39 1
     5    2    3 1
     6    2    4 1
     7    2   66 1
     8    3   40 1
     9    3   41 1
    10    3   42 1
    11    4    5 1
    12    4   43 1
    13    4   44 1
    14    5    6 1
    15    5   45 1
    16    5   46 1
    17    6    7 am
    18    6   47 1
    19    7    8 2
    20    7    9 1
    21    9   14 ar
    22    9   10 ar
    23   10   11 ar
    24   10   48 1
    25   11   12 ar
    26   11   49 1
    27   12   13 ar
    28   12   50 1
    29   13   14 ar
    30   13   15 1
    31   15   19 1
    32   15   16 1
    33   16   17 2
    34   16   51 1
    35   17   18 1
    36   17   52 1
    37   18   23 ar
    38   18   19 ar
    39   19   20 ar
    40   20   21 ar
    41   21   22 ar
    42   21   24 1
    43   22   23 ar
    44   23   53 1
    45   24   25 1
    46   24   54 1
    47   25   30 ar
    48   25   26 ar
    49   26   27 ar
    50   26   55 1
    51   27   28 ar
    52   27   35 1
    53   28   29 ar
    54   28   33 1
    55   29   30 ar
    56   29   31 1
    57   30   56 1
    58   31   32 1
    59   32   57 1
    60   32   58 1
    61   32   59 1
    62   33   34 1
    63   34   60 1
    64   34   61 1
    65   34   62 1
    66   35   36 1
    67   36   63 1
    68   36   64 1
    69   36   65 1
@<TRIPOS>MOLECULE
CHEMBL208384
   63    66     0     0     0
SMALL
USER_CHARGES

@<TRIPOS>ATOM
      1 C1         -0.4160    0.7342    2.2414 C.3       1 <0>         0.0285
      2 O1         -0.2613   -0.4601    1.4722 O.3       1 <0>        -0.2961
      3 C2         -1.3337   -0.8674    0.7419 C.ar      1 <0>         0.1679
      4 C3         -2.5068   -0.1293    0.7620 C.ar      1 <0>        -0.2743
      5 C4         -3.6018   -0.5450    0.0166 C.ar      1 <0>         0.2422
      6 C5         -3.5229   -1.7005   -0.7491 C.ar      1 <0>        -0.2263
      7 C6         -2.3508   -2.4399   -0.7698 C.ar      1 <0>         0.1754
      8 C7         -1.2520   -2.0208   -0.0291 C.ar      1 <0>         0.0133
      9 O2         -0.0979   -2.7432   -0.0541 O.3       1 <0>        -0.3118
     10 C8          0.0415   -3.7772    0.9224 C.3       1 <0>         0.0340
     11 O3         -2.2739   -3.5719   -1.5195 O.3       1 <0>        -0.2964
     12 C9         -3.4391   -3.9396   -2.2605 C.3       1 <0>         0.0246
     13 N1         -4.7862    0.2011    0.0374 N.pl3     1 <0>        -0.6373
     14 C10        -6.0111   -0.4404   -0.0590 C.ar      1 <0>         0.5712
     15 N2         -6.0401   -1.7679   -0.0525 N.ar      1 <0>        -0.5564
     16 C11        -7.1830   -2.4264   -0.1416 C.ar      1 <0>         0.2450
     17 C12        -8.3670   -1.6973   -0.2432 C.ar      1 <0>        -0.2455
     18 C13        -9.7864   -2.0380   -0.3569 C.2       1 <0>        -0.1304
     19 C14       -10.4618   -0.8806   -0.4198 C.2       1 <0>         0.0397
     20 N3         -9.5855    0.1763   -0.3552 N.pl3     1 <0>        -0.4094
     21 C15        -8.2999   -0.2882   -0.2470 C.ar      1 <0>         0.3787
     22 N4         -7.1086    0.2922   -0.1485 N.ar      1 <0>        -0.5477
     23 C16        -9.9502    1.5234   -0.3944 C.ar      1 <0>         0.3495
     24 C17       -11.2959    1.8699   -0.5009 C.ar      1 <0>        -0.1566
     25 C18       -11.6496    3.2066   -0.5392 C.ar      1 <0>        -0.0472
     26 C19       -10.6447    4.1613   -0.4697 C.ar      1 <0>        -0.1216
     27 C20        -9.3205    3.7467   -0.3643 C.ar      1 <0>         0.1015
     28 N5         -9.0172    2.4543   -0.3248 N.ar      1 <0>        -0.4598
     29 C21        -8.2392    4.7568   -0.2893 C.2       1 <0>         0.5825
     30 O4         -8.5106    5.9408   -0.3200 O.2       1 <0>        -0.5172
     31 N6         -6.9545    4.3623   -0.1871 N.am      1 <0>        -0.7180
     32 C22        -5.8853    5.3611   -0.1130 C.3       1 <0>         0.1214
     33 C23        -4.5332    4.6535   -0.0031 C.3       1 <0>        -0.1699
     34 C24        -3.4166    5.6966    0.0743 C.3       1 <0>        -0.0043
     35 N7         -2.1184    5.0173    0.1799 N.4       1 <0>        -0.6383
     36 H1          0.5109    0.9457    2.7745 H         1 <0>         0.1046
     37 H2         -0.6513    1.5661    1.5775 H         1 <0>         0.0435
     38 H3         -1.2257    0.6018    2.9590 H         1 <0>         0.0578
     39 H4         -2.5691    0.7692    1.3579 H         1 <0>         0.1292
     40 H5         -4.3753   -2.0234   -1.3284 H         1 <0>         0.1509
     41 H6          1.0033   -4.2730    0.7917 H         1 <0>         0.0949
     42 H7         -0.0109   -3.3433    1.9210 H         1 <0>         0.0438
     43 H8         -0.7616   -4.5038    0.7993 H         1 <0>         0.0465
     44 H9         -4.2709   -4.0988   -1.5743 H         1 <0>         0.0630
     45 H10        -3.6919   -3.1422   -2.9593 H         1 <0>         0.0552
     46 H11        -3.2432   -4.8585   -2.8132 H         1 <0>         0.1061
     47 H12        -4.7496    1.1669    0.1192 H         1 <0>         0.4144
     48 H13        -7.1992   -3.5063   -0.1361 H         1 <0>         0.1802
     49 H14       -10.2089   -3.0316   -0.3854 H         1 <0>         0.1694
     50 H15       -11.5346   -0.7924   -0.5084 H         1 <0>         0.1891
     51 H16       -12.0544    1.1029   -0.5534 H         1 <0>         0.1523
     52 H17       -12.6855    3.5010   -0.6217 H         1 <0>         0.1593
     53 H18       -10.8875    5.2133   -0.4974 H         1 <0>         0.1579
     54 H19        -6.7378    3.4172   -0.1627 H         1 <0>         0.4179
     55 H20        -5.9008    5.9774   -1.0120 H         1 <0>         0.0822
     56 H21        -6.0375    5.9920    0.7627 H         1 <0>         0.0820
     57 H22        -4.5177    4.0373    0.8959 H         1 <0>         0.0961
     58 H23        -4.3810    4.0226   -0.8788 H         1 <0>         0.0976
     59 H24        -3.4321    6.3129   -0.8246 H         1 <0>         0.1407
     60 H25        -3.5688    6.3275    0.9500 H         1 <0>         0.1403
     61 H26        -1.3820    5.7052    0.2309 H         1 <0>         0.4424
     62 H27        -2.1040    4.4468    1.0120 H         1 <0>         0.4346
     63 H28        -1.9775    4.4333   -0.6307 H         1 <0>         0.4370
@<TRIPOS>BOND
     1    1    2 1
     2    1   36 1
     3    1   37 1
     4    1   38 1
     5    2    3 1
     6    3    8 ar
     7    3    4 ar
     8    4    5 ar
     9    4   39 1
    10    5    6 ar
    11    5   13 1
    12    6    7 ar
    13    6   40 1
    14    7    8 ar
    15    7   11 1
    16    8    9 1
    17    9   10 1
    18   10   41 1
    19   10   42 1
    20   10   43 1
    21   11   12 1
    22   12   44 1
    23   12   45 1
    24   12   46 1
    25   13   14 1
    26   13   47 1
    27   14   22 ar
    28   14   15 ar
    29   15   16 ar
    30   16   17 ar
    31   16   48 1
    32   17   21 ar
    33   17   18 1
    34   18   19 2
    35   18   49 1
    36   19   20 1
    37   19   50 1
    38   20   21 1
    39   20   23 1
    40   21   22 ar
    41   23   28 ar
    42   23   24 ar
    43   24   25 ar
    44   24   51 1
    45   25   26 ar
    46   25   52 1
    47   26   27 ar
    48   26   53 1
    49   27   28 ar
    50   27   29 1
    51   29   30 2
    52   29   31 am
    53   31   32 1
    54   31   54 1
    55   32   33 1
    56   32   55 1
    57   32   56 1
    58   33   34 1
    59   33   57 1
    60   33   58 1
    61   34   35 1
    62   34   59 1
    63   34   60 1
    64   35   61 1
    65   35   62 1
    66   35   63 1
@<TRIPOS>MOLECULE
CHEMBL207444
   65    68     0     0     0
SMALL
USER_CHARGES

@<TRIPOS>ATOM
      1 C1          1.7403    2.4292   -1.6110 C.3       1 <0>        -0.1732
      2 C2          1.6117    0.9391   -1.4265 C.2       1 <0>         0.5130
      3 O1          1.6386    0.4614   -0.3120 O.2       1 <0>        -0.5433
      4 N1          1.4669    0.1372   -2.5000 N.am      1 <0>        -0.7308
      5 C3          1.3419   -1.3114   -2.3207 C.3       1 <0>         0.1058
      6 C4          1.1904   -1.9832   -3.6870 C.3       1 <0>         0.1089
      7 N2          1.0654   -3.4318   -3.5077 N.am      1 <0>        -0.7230
      8 C5          0.9206   -4.2337   -4.5812 C.2       1 <0>         0.5646
      9 O2          0.8937   -3.7550   -5.6982 O.2       1 <0>        -0.5278
     10 C6          0.7944   -5.6958   -4.4002 C.ar      1 <0>        -0.1204
     11 C7          0.8192   -6.2476   -3.1180 C.ar      1 <0>        -0.0819
     12 C8          0.7008   -7.6122   -2.9520 C.ar      1 <0>        -0.1059
     13 C9          0.5574   -8.4372   -4.0521 C.ar      1 <0>        -0.0752
     14 C10         0.5316   -7.8978   -5.3322 C.ar      1 <0>         0.1191
     15 C11         0.6445   -6.5277   -5.5094 C.ar      1 <0>        -0.0581
     16 N3          0.3860   -8.7385   -6.4439 N.pl3     1 <0>        -0.4202
     17 C12        -0.5205   -8.5528   -7.4591 C.2       1 <0>         0.0454
     18 C13        -0.3986   -9.5349   -8.3656 C.2       1 <0>        -0.1478
     19 C14         0.6693  -10.4184   -7.8945 C.ar      1 <0>        -0.2484
     20 C15         1.1311   -9.8637   -6.6816 C.ar      1 <0>         0.3677
     21 N4          2.1184  -10.4765   -6.0372 N.ar      1 <0>        -0.5720
     22 C16         2.6559  -11.5809   -6.5282 C.ar      1 <0>         0.5815
     23 N5          2.2468  -12.1258   -7.6677 N.ar      1 <0>        -0.5576
     24 C17         1.2636  -11.5866   -8.3686 C.ar      1 <0>         0.2437
     25 N6          3.6844  -12.1914   -5.8277 N.pl3     1 <0>        -0.6358
     26 C18         4.3501  -13.2924   -6.3795 C.ar      1 <0>         0.2450
     27 C19         4.5390  -13.3722   -7.7526 C.ar      1 <0>        -0.2288
     28 C20         5.1980  -14.4620   -8.2997 C.ar      1 <0>         0.1699
     29 C21         5.6697  -15.4750   -7.4733 C.ar      1 <0>         0.0090
     30 C22         5.4801  -15.3944   -6.0989 C.ar      1 <0>         0.1712
     31 C23         4.8259  -14.3012   -5.5528 C.ar      1 <0>        -0.2651
     32 O3          5.9413  -16.3851   -5.2895 O.3       1 <0>        -0.2994
     33 C24         5.7114  -16.2368   -3.8870 C.3       1 <0>         0.0243
     34 O4          6.3168  -16.5462   -8.0102 O.3       1 <0>        -0.3105
     35 C25         7.7354  -16.4443   -8.1491 C.3       1 <0>         0.0344
     36 O5          5.3826  -14.5402   -9.6447 O.3       1 <0>        -0.2993
     37 C26         4.8714  -13.4637  -10.4334 C.3       1 <0>         0.0257
     38 H1          2.7923    2.6922   -1.7213 H         1 <0>         0.0963
     39 H2          1.1942    2.7332   -2.5039 H         1 <0>         0.0818
     40 H3          1.3274    2.9400   -0.7410 H         1 <0>         0.0959
     41 H4          1.4454    0.5192   -3.3914 H         1 <0>         0.4053
     42 H5          2.2336   -1.6944   -1.8244 H         1 <0>         0.0759
     43 H6          0.4651   -1.5277   -1.7103 H         1 <0>         0.0763
     44 H7          0.2987   -1.6003   -4.1833 H         1 <0>         0.0792
     45 H8          2.0672   -1.7670   -4.2974 H         1 <0>         0.0788
     46 H9          1.0869   -3.8138   -2.6163 H         1 <0>         0.4042
     47 H10         0.9315   -5.6064   -2.2562 H         1 <0>         0.1340
     48 H11         0.7206   -8.0373   -1.9594 H         1 <0>         0.1415
     49 H12         0.4656   -9.5046   -3.9160 H         1 <0>         0.1342
     50 H13         0.6205   -6.1062   -6.5035 H         1 <0>         0.1450
     51 H14        -1.2268   -7.7379   -7.5186 H         1 <0>         0.1826
     52 H15        -0.9776   -9.6511   -9.2698 H         1 <0>         0.1626
     53 H16         0.9370  -12.0346   -9.2954 H         1 <0>         0.1773
     54 H17         3.9429  -11.8558   -4.9551 H         1 <0>         0.4245
     55 H18         4.1721  -12.5851   -8.3947 H         1 <0>         0.1496
     56 H19         4.6825  -14.2363   -4.4844 H         1 <0>         0.1371
     57 H20         6.1283  -17.0937   -3.3578 H         1 <0>         0.1034
     58 H21         6.1912  -15.3237   -3.5347 H         1 <0>         0.0567
     59 H22         4.6393  -16.1799   -3.6985 H         1 <0>         0.0579
     60 H23         7.9774  -15.6013   -8.7964 H         1 <0>         0.0432
     61 H24         8.1864  -16.2908   -7.1687 H         1 <0>         0.0429
     62 H25         8.1243  -17.3630   -8.5882 H         1 <0>         0.0913
     63 H26         3.7936  -13.3878  -10.2896 H         1 <0>         0.0624
     64 H27         5.3454  -12.5314  -10.1264 H         1 <0>         0.0532
     65 H28         5.0853  -13.6507  -11.4857 H         1 <0>         0.1022
@<TRIPOS>BOND
     1    1    2 1
     2    1   38 1
     3    1   39 1
     4    1   40 1
     5    2    3 2
     6    2    4 am
     7    4    5 1
     8    4   41 1
     9    5    6 1
    10    5   42 1
    11    5   43 1
    12    6    7 1
    13    6   44 1
    14    6   45 1
    15    7    8 am
    16    7   46 1
    17    8    9 2
    18    8   10 1
    19   10   15 ar
    20   10   11 ar
    21   11   12 ar
    22   11   47 1
    23   12   13 ar
    24   12   48 1
    25   13   14 ar
    26   13   49 1
    27   14   15 ar
    28   14   16 1
    29   15   50 1
    30   16   20 1
    31   16   17 1
    32   17   18 2
    33   17   51 1
    34   18   19 1
    35   18   52 1
    36   19   24 ar
    37   19   20 ar
    38   20   21 ar
    39   21   22 ar
    40   22   23 ar
    41   22   25 1
    42   23   24 ar
    43   24   53 1
    44   25   26 1
    45   25   54 1
    46   26   31 ar
    47   26   27 ar
    48   27   28 ar
    49   27   55 1
    50   28   29 ar
    51   28   36 1
    52   29   30 ar
    53   29   34 1
    54   30   31 ar
    55   30   32 1
    56   31   56 1
    57   32   33 1
    58   33   57 1
    59   33   58 1
    60   33   59 1
    61   34   35 1
    62   35   60 1
    63   35   61 1
    64   35   62 1
    65   36   37 1
    66   37   63 1
    67   37   64 1
    68   37   65 1
@<TRIPOS>MOLECULE
CHEMBL207737
   51    54     0     0     0
SMALL
USER_CHARGES

@<TRIPOS>ATOM
      1 C1          3.7489   -3.8383   -1.9189 C.3       1 <0>         0.0257
      2 O1          2.5164   -3.5060   -1.2766 O.3       1 <0>        -0.2991
      3 C2          1.8867   -2.3759   -1.6961 C.ar      1 <0>         0.1697
      4 C3          2.4416   -1.6081   -2.7079 C.ar      1 <0>        -0.2284
      5 C4          1.7989   -0.4544   -3.1363 C.ar      1 <0>         0.2441
      6 C5          0.5999   -0.0691   -2.5520 C.ar      1 <0>        -0.2643
      7 C6          0.0438   -0.8359   -1.5400 C.ar      1 <0>         0.1709
      8 C7          0.6839   -1.9937   -1.1143 C.ar      1 <0>         0.0100
      9 O2          0.1355   -2.7504   -0.1237 O.3       1 <0>        -0.3105
     10 C8          0.5105   -2.4329    1.2182 C.3       1 <0>         0.0343
     11 O3         -1.1302   -0.4579   -0.9672 O.3       1 <0>        -0.2993
     12 C9         -1.7352    0.7402   -1.4576 C.3       1 <0>         0.0243
     13 N1          2.3604    0.3211   -4.1577 N.pl3     1 <0>        -0.6354
     14 C10         3.0661   -0.2891   -5.1829 C.ar      1 <0>         0.5828
     15 N2          3.0965   -1.6155   -5.2373 N.ar      1 <0>        -0.5568
     16 C11         3.7554   -2.2449   -6.1951 C.ar      1 <0>         0.2450
     17 C12         4.4234   -1.4860   -7.1552 C.ar      1 <0>        -0.2488
     18 C13         5.2366   -1.7903   -8.3337 C.2       1 <0>        -0.1448
     19 C14         5.6097   -0.6153   -8.8640 C.2       1 <0>         0.0425
     20 N3          5.0987    0.4179   -8.1168 N.pl3     1 <0>        -0.4216
     21 C15         4.3704   -0.0788   -7.0676 C.ar      1 <0>         0.3679
     22 N4          3.6799    0.4712   -6.0741 N.ar      1 <0>        -0.5727
     23 C16         5.2936    1.7788   -8.3873 C.ar      1 <0>         0.1259
     24 C17         4.2078    2.6438   -8.4218 C.ar      1 <0>        -0.0714
     25 C18         4.4032    3.9846   -8.6887 C.ar      1 <0>        -0.1000
     26 C19         5.6786    4.4661   -8.9215 C.ar      1 <0>        -0.0678
     27 C20         6.7616    3.6073   -8.8883 C.ar      1 <0>        -0.1670
     28 C21         6.5733    2.2662   -8.6157 C.ar      1 <0>        -0.0698
     29 C22         8.1496    4.1360   -9.1430 C.3       1 <0>         0.5110
     30 F1          8.0870    5.5121   -9.3869 F         1 <0>        -0.1729
     31 F2          8.9525    3.8971   -8.0225 F         1 <0>        -0.1735
     32 F3          8.6979    3.4896  -10.2560 F         1 <0>        -0.1735
     33 H1          3.5764   -3.9781   -2.9860 H         1 <0>         0.0622
     34 H2          4.4658   -3.0310   -1.7694 H         1 <0>         0.0533
     35 H3          4.1447   -4.7595   -1.4911 H         1 <0>         0.1023
     36 H4          3.3743   -1.9072   -3.1630 H         1 <0>         0.1491
     37 H5          0.1006    0.8284   -2.8857 H         1 <0>         0.1372
     38 H6          0.0040   -3.1093    1.9066 H         1 <0>         0.0914
     39 H7          1.5893   -2.5419    1.3294 H         1 <0>         0.0433
     40 H8          0.2241   -1.4053    1.4420 H         1 <0>         0.0430
     41 H9         -1.0540    1.5781   -1.3096 H         1 <0>         0.0568
     42 H10        -1.9501    0.6300   -2.5205 H         1 <0>         0.0579
     43 H11        -2.6631    0.9264   -0.9168 H         1 <0>         0.1036
     44 H12         2.2557    1.2853   -4.1479 H         1 <0>         0.4248
     45 H13         3.7761   -3.3240   -6.2329 H         1 <0>         0.1780
     46 H14         5.4885   -2.7726   -8.7052 H         1 <0>         0.1633
     47 H15         6.2211   -0.4993   -9.7466 H         1 <0>         0.1829
     48 H16         3.2116    2.2683   -8.2404 H         1 <0>         0.1383
     49 H17         3.5591    4.6577   -8.7160 H         1 <0>         0.1467
     50 H18         5.8289    5.5151   -9.1300 H         1 <0>         0.1473
     51 H19         7.4202    1.5967   -8.5852 H         1 <0>         0.1420
@<TRIPOS>BOND
     1    1    2 1
     2    1   33 1
     3    1   34 1
     4    1   35 1
     5    2    3 1
     6    3    8 ar
     7    3    4 ar
     8    4    5 ar
     9    4   36 1
    10    5    6 ar
    11    5   13 1
    12    6    7 ar
    13    6   37 1
    14    7    8 ar
    15    7   11 1
    16    8    9 1
    17    9   10 1
    18   10   38 1
    19   10   39 1
    20   10   40 1
    21   11   12 1
    22   12   41 1
    23   12   42 1
    24   12   43 1
    25   13   14 1
    26   13   44 1
    27   14   22 ar
    28   14   15 ar
    29   15   16 ar
    30   16   17 ar
    31   16   45 1
    32   17   21 ar
    33   17   18 1
    34   18   19 2
    35   18   46 1
    36   19   20 1
    37   19   47 1
    38   20   21 1
    39   20   23 1
    40   21   22 ar
    41   23   28 ar
    42   23   24 ar
    43   24   25 ar
    44   24   48 1
    45   25   26 ar
    46   25   49 1
    47   26   27 ar
    48   26   50 1
    49   27   28 ar
    50   27   29 1
    51   28   51 1
    52   29   30 1
    53   29   31 1
    54   29   32 1
@<TRIPOS>MOLECULE
CHEMBL208939
   55    58     0     0     0
SMALL
USER_CHARGES

@<TRIPOS>ATOM
      1 C1          0.1970    2.3428   -0.3025 C.3       1 <0>         0.0911
      2 N1          0.0008    0.8956   -0.1870 N.am      1 <0>        -0.7307
      3 C2          0.5048    0.0702   -1.1256 C.2       1 <0>         0.5566
      4 O1          1.1224    0.5266   -2.0683 O.2       1 <0>        -0.5127
      5 C3          0.3072   -1.3873   -1.0093 C.ar      1 <0>        -0.1245
      6 C4         -0.4065   -1.9156    0.0689 C.ar      1 <0>        -0.0778
      7 C5         -0.5880   -3.2778    0.1717 C.ar      1 <0>        -0.1164
      8 C6         -0.0654   -4.1277   -0.7897 C.ar      1 <0>        -0.0800
      9 C7          0.6421   -3.6198   -1.8607 C.ar      1 <0>        -0.1181
     10 C8          0.8299   -2.2500   -1.9836 C.ar      1 <0>         0.1782
     11 N2          1.5396   -1.7343   -3.0683 N.pl3     1 <0>        -0.4226
     12 C9          1.1353   -1.8029   -4.3800 C.2       1 <0>         0.0489
     13 C10         2.0445   -1.2114   -5.1697 C.2       1 <0>        -0.1513
     14 C11         3.1151   -0.7256   -4.2969 C.ar      1 <0>        -0.2471
     15 C12         2.7410   -1.0788   -2.9829 C.ar      1 <0>         0.4168
     16 N3          3.5478   -0.7469   -1.9810 N.ar      1 <0>        -0.5678
     17 C13         4.6756   -0.0964   -2.2153 C.ar      1 <0>         0.5794
     18 N4          5.0544    0.2531   -3.4388 N.ar      1 <0>        -0.5628
     19 C14         4.3148   -0.0443   -4.4939 C.ar      1 <0>         0.2358
     20 N5          5.4915    0.2327   -1.1443 N.pl3     1 <0>        -0.6390
     21 C15         6.6302    1.0212   -1.3481 C.ar      1 <0>         0.2495
     22 C16         6.6217    2.0145   -2.3181 C.ar      1 <0>        -0.2284
     23 C17         7.7487    2.7957   -2.5204 C.ar      1 <0>         0.1696
     24 C18         8.8873    2.5844   -1.7522 C.ar      1 <0>         0.0064
     25 C19         8.8950    1.5899   -0.7814 C.ar      1 <0>         0.1707
     26 C20         7.7653    0.8133   -0.5763 C.ar      1 <0>        -0.2677
     27 O2         10.0087    1.3824   -0.0291 O.3       1 <0>        -0.3000
     28 C21         9.9460    0.3434    0.9500 C.3       1 <0>         0.0248
     29 O3          9.9950    3.3511   -1.9507 O.3       1 <0>        -0.3104
     30 C22        10.0976    4.5533   -1.1851 C.3       1 <0>         0.0345
     31 O4          7.7403    3.7683   -3.4709 O.3       1 <0>        -0.3001
     32 C23         6.5363    3.9296   -4.2235 C.3       1 <0>         0.0261
     33 H1          1.2639    2.5659   -0.3038 H         1 <0>         0.0595
     34 H2         -0.2494    2.6970   -1.2317 H         1 <0>         0.0608
     35 H3         -0.2776    2.8424    0.5421 H         1 <0>         0.0777
     36 H4         -0.4919    0.5315    0.5651 H         1 <0>         0.3999
     37 H5         -0.8153   -1.2574    0.8213 H         1 <0>         0.1335
     38 H6         -1.1401   -3.6849    1.0059 H         1 <0>         0.1379
     39 H7         -0.2121   -5.1939   -0.7005 H         1 <0>         0.1391
     40 H8          1.0464   -4.2887   -2.6060 H         1 <0>         0.1380
     41 H9          0.2215   -2.2645   -4.7241 H         1 <0>         0.1763
     42 H10         1.9961   -1.1127   -6.2441 H         1 <0>         0.1575
     43 H11         4.6289    0.2437   -5.4863 H         1 <0>         0.1721
     44 H12         5.2736   -0.0834   -0.2535 H         1 <0>         0.4216
     45 H13         5.7369    2.1783   -2.9153 H         1 <0>         0.1503
     46 H14         7.7697    0.0433    0.1810 H         1 <0>         0.1358
     47 H15        10.8976    0.2840    1.4782 H         1 <0>         0.1028
     48 H16         9.1489    0.5616    1.6607 H         1 <0>         0.0561
     49 H17         9.7436   -0.6079    0.4579 H         1 <0>         0.0576
     50 H18         9.2496    5.2003   -1.4093 H         1 <0>         0.0427
     51 H19        10.0973    4.3088   -0.1229 H         1 <0>         0.0423
     52 H20        11.0243    5.0679   -1.4392 H         1 <0>         0.0906
     53 H21         6.3107    3.0027   -4.7509 H         1 <0>         0.0627
     54 H22         5.7157    4.1726   -3.5486 H         1 <0>         0.0530
     55 H23         6.6643    4.7364   -4.9452 H         1 <0>         0.1014
@<TRIPOS>BOND
     1    1    2 1
     2    1   33 1
     3    1   34 1
     4    1   35 1
     5    2    3 am
     6    2   36 1
     7    3    4 2
     8    3    5 1
     9    5   10 ar
    10    5    6 ar
    11    6    7 ar
    12    6   37 1
    13    7    8 ar
    14    7   38 1
    15    8    9 ar
    16    8   39 1
    17    9   10 ar
    18    9   40 1
    19   10   11 1
    20   11   15 1
    21   11   12 1
    22   12   13 2
    23   12   41 1
    24   13   14 1
    25   13   42 1
    26   14   19 ar
    27   14   15 ar
    28   15   16 ar
    29   16   17 ar
    30   17   18 ar
    31   17   20 1
    32   18   19 ar
    33   19   43 1
    34   20   21 1
    35   20   44 1
    36   21   26 ar
    37   21   22 ar
    38   22   23 ar
    39   22   45 1
    40   23   24 ar
    41   23   31 1
    42   24   25 ar
    43   24   29 1
    44   25   26 ar
    45   25   27 1
    46   26   46 1
    47   27   28 1
    48   28   47 1
    49   28   48 1
    50   28   49 1
    51   29   30 1
    52   30   50 1
    53   30   51 1
    54   30   52 1
    55   31   32 1
    56   32   53 1
    57   32   54 1
    58   32   55 1
@<TRIPOS>MOLECULE
CHEMBL383241
   50    53     0     0     0
SMALL
USER_CHARGES

@<TRIPOS>ATOM
      1 C1         -3.2698   -3.5987   -2.7009 C.3       1 <0>         0.0197
      2 O1         -2.1616   -3.3447   -1.8352 O.3       1 <0>        -0.2851
      3 C2         -2.2933   -2.3232   -0.9471 C.ar      1 <0>         0.1885
      4 C3         -3.4665   -1.5862   -0.9073 C.ar      1 <0>        -0.2935
      5 C4         -3.6012   -0.5434   -0.0009 C.ar      1 <0>         0.1811
      6 C5         -2.5612   -0.2382    0.8667 C.ar      1 <0>        -0.2305
      7 C6         -1.3876   -0.9746    0.8285 C.ar      1 <0>         0.1881
      8 C7         -1.2538   -2.0217   -0.0754 C.ar      1 <0>         0.0409
      9 O2         -0.1030   -2.7490   -0.1101 O.3       1 <0>        -0.3076
     10 C8          0.9297   -2.2880   -0.9836 C.3       1 <0>         0.0329
     11 O3         -0.3688   -0.6751    1.6781 O.3       1 <0>        -0.2867
     12 C9         -0.5769    0.4107    2.5834 C.3       1 <0>         0.0178
     13 N1         -4.7863    0.2012    0.0381 N.pl3     1 <0>        -0.6130
     14 C10        -6.0103   -0.4397   -0.0582 C.ar      1 <0>         0.6592
     15 N2         -6.0446   -1.7643   -0.0532 N.ar      1 <0>        -0.5666
     16 C11        -7.1991   -2.4095   -0.1442 C.ar      1 <0>         0.2169
     17 C12        -8.3674   -1.6835   -0.2441 C.ar      1 <0>        -0.2294
     18 C13        -8.3091   -0.2930   -0.2471 C.ar      1 <0>         0.5072
     19 N3         -7.1107    0.2886   -0.1472 N.ar      1 <0>        -0.5545
     20 N4         -9.5681    0.2718   -0.3535 N.pl3     1 <0>        -0.4698
     21 C14       -10.5897   -0.7766   -0.4314 C.3       1 <0>         0.1033
     22 C15        -9.8129   -2.1027   -0.3603 C.3       1 <0>        -0.0775
     23 C16        -9.8271    1.6391   -0.3820 C.ar      1 <0>         0.3331
     24 C17        -8.7683    2.5407   -0.4117 C.ar      1 <0>        -0.1854
     25 C18        -9.0400    3.8967   -0.4398 C.ar      1 <0>        -0.0461
     26 C19       -10.3668    4.3068   -0.4373 C.ar      1 <0>        -0.1727
     27 C20       -11.3680    3.3569   -0.4071 C.ar      1 <0>         0.1384
     28 N5        -11.0791    2.0696   -0.3861 N.ar      1 <0>        -0.4986
     29 H1         -3.0338   -4.4365   -3.3570 H         1 <0>         0.1171
     30 H2         -4.1491   -3.8410   -2.1041 H         1 <0>         0.0534
     31 H3         -3.4718   -2.7122   -3.3021 H         1 <0>         0.0619
     32 H4         -4.2760   -1.8230   -1.5819 H         1 <0>         0.1398
     33 H5         -2.6666    0.5734    1.5714 H         1 <0>         0.1537
     34 H6          1.7885   -2.9556   -0.9149 H         1 <0>         0.1028
     35 H7          0.5599   -2.2759   -2.0088 H         1 <0>         0.0491
     36 H8          1.2284   -1.2807   -0.6932 H         1 <0>         0.0501
     37 H9         -0.7651    1.3237    2.0185 H         1 <0>         0.0636
     38 H10        -1.4349    0.1939    3.2198 H         1 <0>         0.0633
     39 H11         0.3105    0.5429    3.2024 H         1 <0>         0.1151
     40 H12        -4.7501    1.1659    0.1326 H         1 <0>         0.4505
     41 H13        -7.2243   -3.4892   -0.1406 H         1 <0>         0.2207
     42 H14       -11.2787   -0.6964    0.4094 H         1 <0>         0.1145
     43 H15       -11.1325   -0.7064   -1.3741 H         1 <0>         0.1130
     44 H16        -9.9690   -2.6849   -1.2685 H         1 <0>         0.1196
     45 H17       -10.1154   -2.6749    0.5168 H         1 <0>         0.1199
     46 H18        -7.7479    2.1869   -0.4124 H         1 <0>         0.1622
     47 H19        -8.2385    4.6201   -0.4628 H         1 <0>         0.1484
     48 H20       -10.6128    5.3582   -0.4584 H         1 <0>         0.1497
     49 H21       -12.4012    3.6714   -0.4046 H         1 <0>         0.1739
     50 H22        -5.2176   -2.2663    0.0175 H         1 <0>         0.4478
@<TRIPOS>BOND
     1    1    2 1
     2    1   29 1
     3    1   30 1
     4    1   31 1
     5    2    3 1
     6    3    8 ar
     7    3    4 ar
     8    4    5 ar
     9    4   32 1
    10    5    6 ar
    11    5   13 1
    12    6    7 ar
    13    6   33 1
    14    7    8 ar
    15    7   11 1
    16    8    9 1
    17    9   10 1
    18   10   34 1
    19   10   35 1
    20   10   36 1
    21   11   12 1
    22   12   37 1
    23   12   38 1
    24   12   39 1
    25   13   14 1
    26   13   40 1
    27   14   19 ar
    28   14   15 ar
    29   15   16 ar
    30   15   50 1
    31   16   17 ar
    32   16   41 1
    33   17   22 1
    34   17   18 ar
    35   18   19 ar
    36   18   20 1
    37   20   21 1
    38   20   23 1
    39   21   22 1
    40   21   42 1
    41   21   43 1
    42   22   44 1
    43   22   45 1
    44   23   28 ar
    45   23   24 ar
    46   24   25 ar
    47   24   46 1
    48   25   26 ar
    49   25   47 1
    50   26   27 ar
    51   26   48 1
    52   27   28 ar
    53   27   49 1
@<TRIPOS>MOLECULE
CHEMBL383241__1
   51    54     0     0     0
SMALL
USER_CHARGES

@<TRIPOS>ATOM
      1 C1         -0.6129   -3.6006    4.1995 C.3       1 <0>         0.0196
      2 O1         -0.4235   -3.3467    2.8061 O.3       1 <0>        -0.2802
      3 C2          0.3855   -2.3057    2.4726 C.ar      1 <0>         0.1898
      4 C3          0.9878   -1.5499    3.4662 C.ar      1 <0>        -0.2931
      5 C4          1.8138   -0.4872    3.1259 C.ar      1 <0>         0.1558
      6 C5          2.0376   -0.1809    1.7905 C.ar      1 <0>        -0.2207
      7 C6          1.4364   -0.9361    0.7957 C.ar      1 <0>         0.1891
      8 C7          0.6133   -2.0031    1.1354 C.ar      1 <0>         0.0549
      9 O2          0.0265   -2.7487    0.1587 O.3       1 <0>        -0.3066
     10 C8         -1.2575   -2.3214   -0.3006 C.3       1 <0>         0.0326
     11 O3          1.6554   -0.6356   -0.5124 O.3       1 <0>        -0.2817
     12 C9          2.5160    0.4712   -0.7886 C.3       1 <0>         0.0168
     13 N1          2.4210    0.2765    4.1302 N.pl3     1 <0>        -0.5929
     14 C10         2.9654   -0.3471    5.2406 C.ar      1 <0>         0.6676
     15 N2          3.0201   -1.6707    5.2724 N.ar      1 <0>        -0.5502
     16 C11         3.5344   -2.2995    6.3201 C.ar      1 <0>         0.2512
     17 C12         4.0135   -1.5576    7.3793 C.ar      1 <0>        -0.2229
     18 C13         3.9469   -0.1684    7.3255 C.ar      1 <0>         0.4862
     19 N3          3.4200    0.3964    6.2356 N.ar      1 <0>        -0.5854
     20 N4          4.4697    0.4137    8.4670 N.pl3     1 <0>        -0.5071
     21 C14         4.9391   -0.6200    9.3944 C.3       1 <0>         0.0989
     22 C15         4.6458   -1.9564    8.6907 C.3       1 <0>        -0.0775
     23 C16         4.5402    1.7840    8.7008 C.ar      1 <0>         0.3994
     24 C17         5.0945    2.2532    9.8873 C.ar      1 <0>        -0.1458
     25 C18         5.1582    3.6174   10.1067 C.ar      1 <0>         0.0426
     26 C19         4.6636    4.4697    9.1283 C.ar      1 <0>        -0.1312
     27 C20         4.1268    3.9351    7.9743 C.ar      1 <0>         0.1560
     28 N5          4.0840    2.6292    7.7897 N.ar      1 <0>        -0.4755
     29 H1         -1.0547   -2.7233    4.6719 H         1 <0>         0.0618
     30 H2         -1.2778   -4.4550    4.3260 H         1 <0>         0.1214
     31 H3          0.3493   -3.8172    4.6634 H         1 <0>         0.0517
     32 H4          0.8142   -1.7875    4.5053 H         1 <0>         0.1383
     33 H5          2.6800    0.6462    1.5266 H         1 <0>         0.1555
     34 H6         -1.6105   -3.0008   -1.0764 H         1 <0>         0.1077
     35 H7         -1.9607   -2.3241    0.5322 H         1 <0>         0.0511
     36 H8         -1.1806   -1.3133   -0.7080 H         1 <0>         0.0524
     37 H9          3.5012    0.2805   -0.3630 H         1 <0>         0.0636
     38 H10         2.6052    0.6019   -1.8670 H         1 <0>         0.1195
     39 H11         2.0980    1.3756   -0.3463 H         1 <0>         0.0641
     40 H12         2.4605    1.2422    4.0482 H         1 <0>         0.4515
     41 H13         3.5773   -3.3784    6.3439 H         1 <0>         0.2350
     42 H14         6.0094   -0.5123    9.5705 H         1 <0>         0.1295
     43 H15         4.3924   -0.5603   10.3355 H         1 <0>         0.1295
     44 H16         3.9521   -2.5541    9.2820 H         1 <0>         0.1330
     45 H17         5.5707   -2.5061    8.5162 H         1 <0>         0.1333
     46 H18         5.4696    1.5617   10.6272 H         1 <0>         0.1927
     47 H19         5.5828    4.0107   11.0185 H         1 <0>         0.1927
     48 H20         4.6981    5.5400    9.2690 H         1 <0>         0.1976
     49 H21         3.7407    4.5943    7.2109 H         1 <0>         0.2199
     50 H22         2.6806   -2.1840    4.5227 H         1 <0>         0.4592
     51 H23         3.7055    2.2798    6.9678 H         1 <0>         0.4492
@<TRIPOS>BOND
     1    1    2 1
     2    1   29 1
     3    1   30 1
     4    1   31 1
     5    2    3 1
     6    3    8 ar
     7    3    4 ar
     8    4    5 ar
     9    4   32 1
    10    5    6 ar
    11    5   13 1
    12    6    7 ar
    13    6   33 1
    14    7    8 ar
    15    7   11 1
    16    8    9 1
    17    9   10 1
    18   10   34 1
    19   10   35 1
    20   10   36 1
    21   11   12 1
    22   12   37 1
    23   12   38 1
    24   12   39 1
    25   13   14 1
    26   13   40 1
    27   14   19 ar
    28   14   15 ar
    29   15   16 ar
    30   15   50 1
    31   16   17 ar
    32   16   41 1
    33   17   22 1
    34   17   18 ar
    35   18   19 ar
    36   18   20 1
    37   20   21 1
    38   20   23 1
    39   21   22 1
    40   21   42 1
    41   21   43 1
    42   22   44 1
    43   22   45 1
    44   23   28 ar
    45   23   24 ar
    46   24   25 ar
    47   24   46 1
    48   25   26 ar
    49   25   47 1
    50   26   27 ar
    51   26   48 1
    52   27   28 ar
    53   27   49 1
    54   28   51 1
@<TRIPOS>MOLECULE
CHEMBL472211
   56    59     0     0     0
SMALL
USER_CHARGES

@<TRIPOS>ATOM
      1 C1          0.2792    2.3956   -0.0091 C.3       1 <0>        -0.0545
      2 N1          0.2301    0.9609   -0.3210 N.4       1 <0>        -0.3811
      3 C2          0.9803    0.7027   -1.5573 C.3       1 <0>        -0.0491
      4 C3          0.8286    0.1990    0.7831 C.3       1 <0>         0.0064
      5 H1          1.8703    0.4909    0.9163 H         1 <0>         0.1446
      6 C4          0.7365   -1.3133    0.4925 C.3       1 <0>        -0.1382
      7 C5          0.4546   -1.9495    1.8762 C.3       1 <0>        -0.1254
      8 C6         -0.5025   -0.9251    2.5348 C.3       1 <0>        -0.1359
      9 C7          0.0416    0.4467    2.0820 C.3       1 <0>         0.1365
     10 H2         -0.7845    1.1324    1.8930 H         1 <0>         0.1146
     11 N2          0.9286    0.9996    3.1085 N.pl3     1 <0>        -0.7045
     12 C8          0.4050    1.7669    4.1361 C.ar      1 <0>         0.5220
     13 C9          1.2421    2.3039    5.1171 C.ar      1 <0>        -0.4011
     14 C10         0.6763    3.0625    6.1227 C.ar      1 <0>         0.2806
     15 N3         -0.6343    3.2579    6.1282 N.ar      1 <0>        -0.5734
     16 C11        -1.4045    2.7365    5.1849 C.ar      1 <0>         0.6237
     17 N4         -0.9004    2.0076    4.2002 N.ar      1 <0>        -0.6143
     18 N5         -2.7703    2.9634    5.2263 N.pl3     1 <0>        -0.6290
     19 C12        -3.3066    3.8280    6.1853 C.ar      1 <0>         0.2004
     20 C13        -2.6304    4.9955    6.5162 C.ar      1 <0>        -0.1198
     21 C14        -3.1720    5.8335    7.4722 C.ar      1 <0>         0.0244
     22 C15        -4.3644    5.5108    8.0794 C.ar      1 <0>        -0.6346
     23 C16        -5.0678    4.3606    7.7580 C.ar      1 <0>        -0.0210
     24 C17        -4.5085    3.5176    6.7932 C.ar      1 <0>        -0.1391
     25 C18        -6.3819    4.1554    8.4718 C.3       1 <0>        -0.0983
     26 C19        -6.4597    4.9808    9.7759 C.3       1 <0>        -0.5674
     27 S1         -5.3037    6.3451    9.3401 S.o2      1 <0>         2.4612
     28 O1         -4.3915    6.5992   10.3996 O.2       1 <0>        -0.9265
     29 O2         -5.9871    7.4016    8.6796 O.2       1 <0>        -0.9230
     30 C20         2.7288    2.0603    5.0791 C.3       1 <0>         0.5284
     31 F1          3.3344    2.7017    6.1649 F         1 <0>        -0.1652
     32 F2          2.9782    0.6856    5.1513 F         1 <0>        -0.1765
     33 F3          3.2541    2.5675    3.8857 F         1 <0>        -0.1815
     34 H3          1.3163    2.7031    0.1244 H         1 <0>         0.1238
     35 H4         -0.1649    2.9609   -0.8284 H         1 <0>         0.1300
     36 H5         -0.2775    2.5872    0.9083 H         1 <0>         0.1215
     37 H6          2.0175    1.0102   -1.4239 H         1 <0>         0.1235
     38 H7          0.9439   -0.3618   -1.7888 H         1 <0>         0.1261
     39 H8          0.5362    1.2681   -2.3766 H         1 <0>         0.1281
     40 H9         -0.0823   -1.5202   -0.1965 H         1 <0>         0.0935
     41 H10         1.6791   -1.6821    0.0880 H         1 <0>         0.1042
     42 H11        -0.0337   -2.9176    1.7640 H         1 <0>         0.0940
     43 H12         1.3749   -2.0444    2.4526 H         1 <0>         0.0839
     44 H13        -1.5214   -1.0694    2.1757 H         1 <0>         0.0905
     45 H14        -0.4641   -1.0107    3.6208 H         1 <0>         0.0911
     46 H15         1.8825    0.8283    3.0686 H         1 <0>         0.4180
     47 H16         1.2953    3.4918    6.8967 H         1 <0>         0.1895
     48 H17        -3.3547    2.5226    4.5899 H         1 <0>         0.4281
     49 H18        -1.6964    5.2441    6.0343 H         1 <0>         0.1418
     50 H19        -2.6583    6.7438    7.7439 H         1 <0>         0.1413
     51 H20        -5.0218    2.6070    6.5215 H         1 <0>         0.1339
     52 H21        -7.1956    4.4558    7.8118 H         1 <0>         0.1129
     53 H22        -6.4943    3.0983    8.7128 H         1 <0>         0.1105
     54 H23        -7.4685    5.3547    9.9503 H         1 <0>         0.1538
     55 H24        -6.0967    4.4097   10.6304 H         1 <0>         0.1494
     56 H25        -0.7300    0.6762   -0.4446 H         1 <0>         0.4270
@<TRIPOS>BOND
     1    1    2 1
     2    1   34 1
     3    1   35 1
     4    1   36 1
     5    2    3 1
     6    2    4 1
     7    2   56 1
     8    3   37 1
     9    3   38 1
    10    3   39 1
    11    4    5 1
    12    4    9 1
    13    4    6 1
    14    6    7 1
    15    6   40 1
    16    6   41 1
    17    7    8 1
    18    7   42 1
    19    7   43 1
    20    8    9 1
    21    8   44 1
    22    8   45 1
    23    9   10 1
    24    9   11 1
    25   11   12 1
    26   11   46 1
    27   12   17 ar
    28   12   13 ar
    29   13   14 ar
    30   13   30 1
    31   14   15 ar
    32   14   47 1
    33   15   16 ar
    34   16   17 ar
    35   16   18 1
    36   18   19 1
    37   18   48 1
    38   19   24 ar
    39   19   20 ar
    40   20   21 ar
    41   20   49 1
    42   21   22 ar
    43   21   50 1
    44   22   27 1
    45   22   23 ar
    46   23   24 ar
    47   23   25 1
    48   24   51 1
    49   25   26 1
    50   25   52 1
    51   25   53 1
    52   26   27 1
    53   26   54 1
    54   26   55 1
    55   27   28 2
    56   27   29 2
    57   30   31 1
    58   30   32 1
    59   30   33 1
@<TRIPOS>MOLECULE
CHEMBL471520
   45    48     0     0     0
SMALL
USER_CHARGES

@<TRIPOS>ATOM
      1 C1         -0.1074    1.2039    0.1023 C.ar      1 <0>        -0.1074
      2 C2          1.0640    1.9188    0.2687 C.ar      1 <0>        -0.1215
      3 C3          2.2822    1.2660    0.2391 C.ar      1 <0>        -0.0976
      4 C4          2.3289   -0.1016    0.0434 C.ar      1 <0>        -0.1195
      5 C5          1.1575   -0.8166   -0.1221 C.ar      1 <0>        -0.0976
      6 C6         -0.0606   -0.1636   -0.0938 C.ar      1 <0>        -0.1215
      7 C7          3.6570   -0.8130    0.0101 C.3       1 <0>         0.1701
      8 N1          4.0157   -1.2413    1.3644 N.pl3     1 <0>        -0.6948
      9 C8          5.2028   -1.9205    1.5844 C.ar      1 <0>         0.5243
     10 C9          5.5522   -2.3386    2.8707 C.ar      1 <0>        -0.4113
     11 C10         6.7452   -3.0125    3.0431 C.ar      1 <0>         0.2731
     12 N2          7.5183   -3.2413    1.9915 N.ar      1 <0>        -0.5874
     13 C11         7.1620   -2.8332    0.7826 C.ar      1 <0>         0.6196
     14 N3          6.0234   -2.1887    0.5741 N.ar      1 <0>        -0.6120
     15 N4          7.9980   -3.0915   -0.2909 N.pl3     1 <0>        -0.6255
     16 C12         9.2538   -3.6720   -0.0763 C.ar      1 <0>         0.1410
     17 C13         9.7939   -4.5358   -1.0205 C.ar      1 <0>        -0.1075
     18 C14        11.0304   -5.1090   -0.8121 C.ar      1 <0>        -0.1148
     19 C15        11.7483   -4.8258    0.3485 C.ar      1 <0>         0.1270
     20 C16        11.2004   -3.9605    1.2868 C.ar      1 <0>        -0.1211
     21 C17         9.9687   -3.3822    1.0798 C.ar      1 <0>        -0.0571
     22 C18        12.2053   -3.8604    2.4114 C.3       1 <0>        -0.1144
     23 C19        13.3406   -4.7606    1.9729 C.2       1 <0>         0.5284
     24 O1         14.3658   -4.9766    2.5840 O.2       1 <0>        -0.5031
     25 N5         12.9992   -5.2756    0.7798 N.am      1 <0>        -0.6598
     26 C20         4.6480   -2.0602    4.0437 C.3       1 <0>         0.5285
     27 F1          5.2229   -2.5785    5.2091 F         1 <0>        -0.1727
     28 F2          4.4765   -0.6788    4.1828 F         1 <0>        -0.1784
     29 F3          3.4050   -2.6651    3.8282 F         1 <0>        -0.1783
     30 H1         -1.0594    1.7132    0.1300 H         1 <0>         0.1252
     31 H2          1.0275    2.9873    0.4216 H         1 <0>         0.1260
     32 H3          3.1974    1.8246    0.3684 H         1 <0>         0.1245
     33 H4          1.1940   -1.8850   -0.2753 H         1 <0>         0.1245
     34 H5         -0.9759   -0.7222   -0.2235 H         1 <0>         0.1259
     35 H6          3.5858   -1.6852   -0.6399 H         1 <0>         0.0820
     36 H7          4.4219   -0.1369   -0.3717 H         1 <0>         0.0822
     37 H8          3.4220   -1.0493    2.1070 H         1 <0>         0.4148
     38 H9          7.0451   -3.3490    4.0245 H         1 <0>         0.1824
     39 H10         7.7134   -2.8702   -1.1914 H         1 <0>         0.4272
     40 H11         9.2426   -4.7598   -1.9218 H         1 <0>         0.1354
     41 H12        11.4438   -5.7800   -1.5505 H         1 <0>         0.1327
     42 H13         9.5568   -2.7080    1.8161 H         1 <0>         0.1438
     43 H14        12.5533   -2.8334    2.5222 H         1 <0>         0.1245
     44 H15        11.7713   -4.2201    3.3443 H         1 <0>         0.1266
     45 H16        13.5568   -5.8888    0.2758 H         1 <0>         0.4137
@<TRIPOS>BOND
     1    1    6 ar
     2    1    2 ar
     3    1   30 1
     4    2    3 ar
     5    2   31 1
     6    3    4 ar
     7    3   32 1
     8    4    5 ar
     9    4    7 1
    10    5    6 ar
    11    5   33 1
    12    6   34 1
    13    7    8 1
    14    7   35 1
    15    7   36 1
    16    8    9 1
    17    8   37 1
    18    9   14 ar
    19    9   10 ar
    20   10   11 ar
    21   10   26 1
    22   11   12 ar
    23   11   38 1
    24   12   13 ar
    25   13   14 ar
    26   13   15 1
    27   15   16 1
    28   15   39 1
    29   16   21 ar
    30   16   17 ar
    31   17   18 ar
    32   17   40 1
    33   18   19 ar
    34   18   41 1
    35   19   25 1
    36   19   20 ar
    37   20   21 ar
    38   20   22 1
    39   21   42 1
    40   22   23 1
    41   22   43 1
    42   22   44 1
    43   23   24 2
    44   23   25 am
    45   25   45 1
    46   26   27 1
    47   26   28 1
    48   26   29 1
@<TRIPOS>MOLECULE
CHEMBL518905
   60    63     0     0     0
SMALL
USER_CHARGES

@<TRIPOS>ATOM
      1 C1          0.0987    2.3951    0.1361 C.3       1 <0>        -0.0546
      2 N1          0.3336    0.9504    0.2606 N.4       1 <0>        -0.3811
      3 C2          1.0894    0.6815    1.4912 C.3       1 <0>        -0.0490
      4 C3         -0.9552    0.2475    0.3141 C.3       1 <0>         0.0064
      5 H1         -1.5276    0.5829    1.1789 H         1 <0>         0.1444
      6 C4         -0.7236   -1.2757    0.3922 C.3       1 <0>        -0.1382
      7 C5         -1.8617   -1.8776   -0.4689 C.3       1 <0>        -0.1254
      8 C6         -1.9741   -0.8698   -1.6397 C.3       1 <0>        -0.1358
      9 C7         -1.7508    0.5066   -0.9773 C.3       1 <0>         0.1367
     10 H2         -1.1807    1.1538   -1.6436 H         1 <0>         0.1146
     11 N2         -3.0396    1.1254   -0.6571 N.pl3     1 <0>        -0.7051
     12 C8         -3.6874    1.9047   -1.6016 C.ar      1 <0>         0.5220
     13 C9         -4.9138    2.5043   -1.3051 C.ar      1 <0>        -0.4028
     14 C10        -5.5233    3.2726   -2.2773 C.ar      1 <0>         0.2789
     15 N3         -4.9319    3.4179   -3.4542 N.ar      1 <0>        -0.5720
     16 C11        -3.7686    2.8377   -3.7079 C.ar      1 <0>         0.6223
     17 N4         -3.1486    2.0975   -2.8010 N.ar      1 <0>        -0.6152
     18 N5         -3.1826    3.0141   -4.9511 N.pl3     1 <0>        -0.6217
     19 C12        -3.7560    3.8852   -5.8737 C.ar      1 <0>         0.1719
     20 C13        -4.4005    5.0372   -5.4316 C.ar      1 <0>        -0.1170
     21 C14        -4.9755    5.8984   -6.3398 C.ar      1 <0>        -0.0445
     22 C15        -4.9049    5.6128   -7.7034 C.ar      1 <0>        -0.1399
     23 C16        -4.2464    4.4610   -8.1468 C.ar      1 <0>        -0.0248
     24 C17        -3.6774    3.6034   -7.2351 C.ar      1 <0>        -0.1425
     25 C18        -4.1478    4.1891   -9.6245 C.3       1 <0>        -0.0877
     26 C19        -5.4902    3.7007  -10.1643 C.3       1 <0>        -0.1354
     27 C20        -6.6333    4.5400   -9.6066 C.3       1 <0>         0.1066
     28 N6         -6.3139    5.9645   -9.6504 N.am      1 <0>        -0.7220
     29 C21        -5.5279    6.5093   -8.6986 C.2       1 <0>         0.5662
     30 O1         -5.3373    7.7096   -8.6606 O.2       1 <0>        -0.5282
     31 C22        -5.5572    2.3164    0.0446 C.3       1 <0>         0.5284
     32 F1         -6.7687    3.0149    0.0849 F         1 <0>        -0.1658
     33 F2         -5.7962    0.9552    0.2619 F         1 <0>        -0.1769
     34 F3         -4.7040    2.8048    1.0400 F         1 <0>        -0.1819
     35 H3          1.0550    2.9167    0.0965 H         1 <0>         0.1298
     36 H4         -0.4622    2.5946   -0.7770 H         1 <0>         0.1219
     37 H5         -0.4712    2.7460    0.9965 H         1 <0>         0.1237
     38 H6          0.5196    1.0324    2.3516 H         1 <0>         0.1233
     39 H7          1.2638   -0.3905    1.5836 H         1 <0>         0.1260
     40 H8          2.0457    1.2030    1.4516 H         1 <0>         0.1280
     41 H9          0.2491   -1.5356   -0.0256 H         1 <0>         0.0934
     42 H10        -0.8016   -1.6211    1.4230 H         1 <0>         0.1039
     43 H11        -1.5870   -2.8666   -0.8355 H         1 <0>         0.0938
     44 H12        -2.7930   -1.9188    0.0960 H         1 <0>         0.0837
     45 H13        -1.2034   -1.0642   -2.3856 H         1 <0>         0.0904
     46 H14        -2.9648   -0.9190   -2.0916 H         1 <0>         0.0913
     47 H15        -3.4392    0.9894    0.2162 H         1 <0>         0.4176
     48 H16        -6.4721    3.7497   -2.0806 H         1 <0>         0.1883
     49 H17        -2.3730    2.5308   -5.1787 H         1 <0>         0.4267
     50 H18        -4.4500    5.2557   -4.3751 H         1 <0>         0.1404
     51 H19        -5.4784    6.7908   -5.9978 H         1 <0>         0.1372
     52 H20        -3.1738    2.7102   -7.5742 H         1 <0>         0.1329
     53 H21        -3.8627    5.1052  -10.1417 H         1 <0>         0.0787
     54 H22        -3.3890    3.4268   -9.8012 H         1 <0>         0.0820
     55 H23        -5.4880    3.7745  -11.2518 H         1 <0>         0.0772
     56 H24        -5.6355    2.6596   -9.8762 H         1 <0>         0.0801
     57 H25        -7.5315    4.3571  -10.1964 H         1 <0>         0.0893
     58 H26        -6.8201    4.2474   -8.5733 H         1 <0>         0.0757
     59 H27        -6.6668    6.5190  -10.3638 H         1 <0>         0.4067
     60 H28         0.8611    0.6255   -0.5358 H         1 <0>         0.4270
@<TRIPOS>BOND
     1    1    2 1
     2    1   35 1
     3    1   36 1
     4    1   37 1
     5    2    3 1
     6    2    4 1
     7    2   60 1
     8    3   38 1
     9    3   39 1
    10    3   40 1
    11    4    5 1
    12    4    9 1
    13    4    6 1
    14    6    7 1
    15    6   41 1
    16    6   42 1
    17    7    8 1
    18    7   43 1
    19    7   44 1
    20    8    9 1
    21    8   45 1
    22    8   46 1
    23    9   10 1
    24    9   11 1
    25   11   12 1
    26   11   47 1
    27   12   17 ar
    28   12   13 ar
    29   13   14 ar
    30   13   31 1
    31   14   15 ar
    32   14   48 1
    33   15   16 ar
    34   16   17 ar
    35   16   18 1
    36   18   19 1
    37   18   49 1
    38   19   24 ar
    39   19   20 ar
    40   20   21 ar
    41   20   50 1
    42   21   22 ar
    43   21   51 1
    44   22   29 1
    45   22   23 ar
    46   23   24 ar
    47   23   25 1
    48   24   52 1
    49   25   26 1
    50   25   53 1
    51   25   54 1
    52   26   27 1
    53   26   55 1
    54   26   56 1
    55   27   28 1
    56   27   57 1
    57   27   58 1
    58   28   29 am
    59   28   59 1
    60   29   30 2
    61   31   32 1
    62   31   33 1
    63   31   34 1
@<TRIPOS>MOLECULE
CHEMBL207499
   70    73     0     0     0
SMALL
USER_CHARGES

@<TRIPOS>ATOM
      1 C1         -0.3784   -0.3482    0.9577 C.3       1 <0>        -0.1502
      2 C2         -0.3986   -1.8562    0.6999 C.3       1 <0>        -0.1086
      3 C3          0.2652   -2.5829    1.8713 C.3       1 <0>        -0.1470
      4 C4         -1.8466   -2.3303    0.5602 C.3       1 <0>         0.1212
      5 N1         -2.4457   -1.7252   -0.6319 N.am      1 <0>        -0.7320
      6 C5         -3.7242   -2.0010   -0.9575 C.2       1 <0>         0.5108
      7 O1         -4.3786   -2.7501   -0.2636 O.2       1 <0>        -0.5378
      8 C6         -4.3405   -1.3785   -2.1838 C.3       1 <0>        -0.1350
      9 C7         -5.7884   -1.8527   -2.3235 C.3       1 <0>        -0.0651
     10 C8         -6.4048   -1.2302   -3.5498 C.ar      1 <0>        -0.0668
     11 C9         -7.0507   -0.0110   -3.4552 C.ar      1 <0>        -0.1103
     12 C10        -7.6170    0.5635   -4.5780 C.ar      1 <0>        -0.0986
     13 C11        -7.5395   -0.0794   -5.7982 C.ar      1 <0>        -0.1052
     14 C12        -6.8918   -1.3033   -5.8964 C.ar      1 <0>         0.1251
     15 C13        -6.3190   -1.8751   -4.7679 C.ar      1 <0>        -0.1144
     16 N2         -6.8119   -1.9581   -7.1325 N.pl3     1 <0>        -0.4185
     17 C14        -5.6603   -2.4669   -7.6820 C.2       1 <0>         0.0457
     18 C15        -5.9307   -3.0291   -8.8702 C.2       1 <0>        -0.1511
     19 C16        -7.3675   -2.8680   -9.0998 C.ar      1 <0>        -0.2500
     20 C17        -7.8721   -2.1907   -7.9690 C.ar      1 <0>         0.3681
     21 N3         -9.1716   -1.9185   -7.9182 N.ar      1 <0>        -0.5706
     22 C18        -9.9716   -2.2796   -8.9078 C.ar      1 <0>         0.5806
     23 N4         -9.5290   -2.9202   -9.9831 N.ar      1 <0>        -0.5582
     24 C19        -8.2491   -3.2233  -10.1192 C.ar      1 <0>         0.2424
     25 N5        -11.3217   -1.9785   -8.8186 N.pl3     1 <0>        -0.6361
     26 C20       -12.2098   -2.4497   -9.7928 C.ar      1 <0>         0.2457
     27 C21       -11.9920   -3.6831  -10.3918 C.ar      1 <0>        -0.2289
     28 C22       -12.8708   -4.1504  -11.3564 C.ar      1 <0>         0.1698
     29 C23       -13.9703   -3.3840  -11.7239 C.ar      1 <0>         0.0087
     30 C24       -14.1877   -2.1494  -11.1239 C.ar      1 <0>         0.1712
     31 C25       -13.3111   -1.6860  -10.1553 C.ar      1 <0>        -0.2653
     32 O2        -15.2634   -1.3988  -11.4828 O.3       1 <0>        -0.2995
     33 C26       -15.4249   -0.1404  -10.8251 C.3       1 <0>         0.0243
     34 O3        -14.8340   -3.8422  -12.6718 O.3       1 <0>        -0.3106
     35 C27       -15.9408   -4.6237  -12.2176 C.3       1 <0>         0.0344
     36 O4        -12.6570   -5.3584  -11.9433 O.3       1 <0>        -0.2994
     37 C28       -11.5071   -6.0921  -11.5175 C.3       1 <0>         0.0258
     38 H1          0.6531   -0.0104    1.0572 H         1 <0>         0.0595
     39 H2         -0.8513    0.1695    0.1232 H         1 <0>         0.0537
     40 H3         -0.9226   -0.1294    1.8764 H         1 <0>         0.0581
     41 H4          0.1456   -2.0750   -0.2189 H         1 <0>         0.0766
     42 H5         -0.2790   -2.3640    2.7900 H         1 <0>         0.0590
     43 H6          0.2508   -3.6572    1.6875 H         1 <0>         0.0586
     44 H7          1.2968   -2.2451    1.9708 H         1 <0>         0.0617
     45 H8         -1.8658   -3.4160    0.4652 H         1 <0>         0.0680
     46 H9         -2.4131   -2.0327    1.4425 H         1 <0>         0.0686
     47 H10        -1.9223   -1.1261   -1.1869 H         1 <0>         0.4007
     48 H11        -4.3212   -0.2928   -2.0889 H         1 <0>         0.0967
     49 H12        -3.7740   -1.6762   -3.0661 H         1 <0>         0.0952
     50 H13        -5.8077   -2.9384   -2.4184 H         1 <0>         0.0827
     51 H14        -6.3550   -1.5550   -1.4411 H         1 <0>         0.0855
     52 H15        -7.1132    0.4933   -2.5021 H         1 <0>         0.1301
     53 H16        -8.1208    1.5157   -4.5010 H         1 <0>         0.1324
     54 H17        -7.9827    0.3696   -6.6749 H         1 <0>         0.1266
     55 H18        -5.8109   -2.8252   -4.8419 H         1 <0>         0.1298
     56 H19        -4.6825   -2.4212   -7.2256 H         1 <0>         0.1805
     57 H20        -5.2235   -3.5083   -9.5309 H         1 <0>         0.1611
     58 H21        -7.8963   -3.7456  -10.9962 H         1 <0>         0.1765
     59 H22       -11.6511   -1.4412   -8.0813 H         1 <0>         0.4246
     60 H23       -11.1373   -4.2785  -10.1064 H         1 <0>         0.1495
     61 H24       -13.4824   -0.7287   -9.6858 H         1 <0>         0.1370
     62 H25       -15.5254   -0.3017   -9.7518 H         1 <0>         0.0568
     63 H26       -14.5535    0.4851  -11.0185 H         1 <0>         0.0579
     64 H27       -16.3190    0.3551  -11.2034 H         1 <0>         0.1033
     65 H28       -15.5721   -5.5114  -11.7036 H         1 <0>         0.0432
     66 H29       -16.5463   -4.0317  -11.5314 H         1 <0>         0.0428
     67 H30       -16.5481   -4.9242  -13.0714 H         1 <0>         0.0912
     68 H31       -11.5805   -6.2946  -10.4490 H         1 <0>         0.0532
     69 H32       -11.4547   -7.0343  -12.0630 H         1 <0>         0.1020
     70 H33       -10.6089   -5.5072  -11.7156 H         1 <0>         0.0623
@<TRIPOS>BOND
     1    1    2 1
     2    1   38 1
     3    1   39 1
     4    1   40 1
     5    2    3 1
     6    2    4 1
     7    2   41 1
     8    3   42 1
     9    3   43 1
    10    3   44 1
    11    4    5 1
    12    4   45 1
    13    4   46 1
    14    5    6 am
    15    5   47 1
    16    6    7 2
    17    6    8 1
    18    8    9 1
    19    8   48 1
    20    8   49 1
    21    9   10 1
    22    9   50 1
    23    9   51 1
    24   10   15 ar
    25   10   11 ar
    26   11   12 ar
    27   11   52 1
    28   12   13 ar
    29   12   53 1
    30   13   14 ar
    31   13   54 1
    32   14   15 ar
    33   14   16 1
    34   15   55 1
    35   16   20 1
    36   16   17 1
    37   17   18 2
    38   17   56 1
    39   18   19 1
    40   18   57 1
    41   19   24 ar
    42   19   20 ar
    43   20   21 ar
    44   21   22 ar
    45   22   23 ar
    46   22   25 1
    47   23   24 ar
    48   24   58 1
    49   25   26 1
    50   25   59 1
    51   26   31 ar
    52   26   27 ar
    53   27   28 ar
    54   27   60 1
    55   28   29 ar
    56   28   36 1
    57   29   30 ar
    58   29   34 1
    59   30   31 ar
    60   30   32 1
    61   31   61 1
    62   32   33 1
    63   33   62 1
    64   33   63 1
    65   33   64 1
    66   34   35 1
    67   35   65 1
    68   35   66 1
    69   35   67 1
    70   36   37 1
    71   37   68 1
    72   37   69 1
    73   37   70 1
@<TRIPOS>MOLECULE
CHEMBL207259
   64    67     0     0     0
SMALL
USER_CHARGES

@<TRIPOS>ATOM
      1 C1         -1.6584    0.4845   -0.5419 C.3       1 <0>        -0.1663
      2 C2         -1.5683   -1.0367   -0.4054 C.3       1 <0>         0.1119
      3 N1         -0.6861   -1.3751    0.7142 N.am      1 <0>        -0.7340
      4 C3         -0.4559   -2.6664    1.0243 C.2       1 <0>         0.5104
      5 O1         -0.9791   -3.5482    0.3766 O.2       1 <0>        -0.5379
      6 C4          0.4516   -3.0145    2.1760 C.3       1 <0>        -0.1350
      7 C5          0.5416   -4.5357    2.3126 C.3       1 <0>        -0.0653
      8 C6          1.4491   -4.8838    3.4642 C.ar      1 <0>        -0.0668
      9 C7          2.8054   -5.0489    3.2496 C.ar      1 <0>        -0.1103
     10 C8          3.6412   -5.3679    4.3037 C.ar      1 <0>        -0.0986
     11 C9          3.1236   -5.5231    5.5750 C.ar      1 <0>        -0.1052
     12 C10         1.7626   -5.3580    5.7936 C.ar      1 <0>         0.1250
     13 C11         0.9265   -5.0321    4.7338 C.ar      1 <0>        -0.1144
     14 N2          1.2345   -5.5152    7.0818 N.pl3     1 <0>        -0.4186
     15 C12         0.3977   -4.6217    7.7051 C.2       1 <0>         0.0457
     16 C13         0.0768   -5.0727    8.9276 C.2       1 <0>        -0.1511
     17 C14         0.7613   -6.3550    9.1011 C.ar      1 <0>        -0.2500
     18 C15         1.4717   -6.5858    7.9036 C.ar      1 <0>         0.3681
     19 N3          2.1856   -7.7009    7.7925 N.ar      1 <0>        -0.5705
     20 C16         2.2237   -8.5745    8.7851 C.ar      1 <0>         0.5805
     21 N4          1.5646   -8.3885    9.9225 N.ar      1 <0>        -0.5582
     22 C17         0.8366   -7.3025   10.1205 C.ar      1 <0>         0.2424
     23 N5          2.9792   -9.7265    8.6319 N.pl3     1 <0>        -0.6361
     24 C18         2.9451  -10.7219    9.6157 C.ar      1 <0>         0.2456
     25 C19         1.7735  -10.9599   10.3216 C.ar      1 <0>        -0.2289
     26 C20         1.7389  -11.9453   11.2958 C.ar      1 <0>         0.1698
     27 C21         2.8775  -12.6950   11.5660 C.ar      1 <0>         0.0087
     28 C22         4.0499  -12.4561   10.8590 C.ar      1 <0>         0.1712
     29 C23         4.0813  -11.4743    9.8812 C.ar      1 <0>        -0.2653
     30 O2          5.1645  -13.1893   11.1227 O.3       1 <0>        -0.2995
     31 C24         6.3339  -12.8898   10.3580 C.3       1 <0>         0.0243
     32 O3          2.8444  -13.6629   12.5233 O.3       1 <0>        -0.3105
     33 C25         2.4743  -14.9779   12.1038 C.3       1 <0>         0.0344
     34 O4          0.5914  -12.1780   11.9873 O.3       1 <0>        -0.2994
     35 C26        -0.5400  -11.3697   11.6578 C.3       1 <0>         0.0258
     36 H1         -0.6645    0.8922   -0.7264 H         1 <0>         0.0621
     37 H2         -2.3147    0.7363   -1.3749 H         1 <0>         0.0754
     38 H3         -2.0600    0.9087    0.3783 H         1 <0>         0.0621
     39 H4         -2.5622   -1.4444   -0.2209 H         1 <0>         0.0677
     40 H5         -1.1666   -1.4610   -1.3256 H         1 <0>         0.0677
     41 H6         -0.2676   -0.6699    1.2323 H         1 <0>         0.4013
     42 H7          1.4455   -2.6068    1.9915 H         1 <0>         0.0970
     43 H8          0.0499   -2.5902    3.0962 H         1 <0>         0.0954
     44 H9         -0.4523   -4.9434    2.4971 H         1 <0>         0.0828
     45 H10         0.9433   -4.9600    1.3924 H         1 <0>         0.0855
     46 H11         3.2123   -4.9288    2.2564 H         1 <0>         0.1301
     47 H12         4.6999   -5.4962    4.1329 H         1 <0>         0.1325
     48 H13         3.7769   -5.7729    6.3979 H         1 <0>         0.1266
     49 H14        -0.1321   -4.8989    4.9016 H         1 <0>         0.1298
     50 H15         0.0498   -3.6940    7.2751 H         1 <0>         0.1805
     51 H16        -0.5635   -4.5829    9.6463 H         1 <0>         0.1611
     52 H17         0.3023   -7.1584   11.0479 H         1 <0>         0.1765
     53 H18         3.5315   -9.8430    7.8431 H         1 <0>         0.4246
     54 H19         0.8889  -10.3770   10.1117 H         1 <0>         0.1495
     55 H20         4.9911  -11.2915    9.3286 H         1 <0>         0.1370
     56 H21         7.1481  -13.5452   10.6674 H         1 <0>         0.1033
     57 H22         6.1253  -13.0446    9.2994 H         1 <0>         0.0568
     58 H23         6.6205  -11.8513   10.5238 H         1 <0>         0.0579
     59 H24         2.4878  -15.6502   12.9617 H         1 <0>         0.0912
     60 H25         1.4718  -14.9542   11.6765 H         1 <0>         0.0432
     61 H26         3.1808  -15.3322   11.3533 H         1 <0>         0.0429
     62 H27        -0.7962  -11.5139   10.6082 H         1 <0>         0.0532
     63 H28        -1.3864  -11.6577   12.2813 H         1 <0>         0.1020
     64 H29        -0.3004  -10.3208   11.8325 H         1 <0>         0.0623
@<TRIPOS>BOND
     1    1    2 1
     2    1   36 1
     3    1   37 1
     4    1   38 1
     5    2    3 1
     6    2   39 1
     7    2   40 1
     8    3    4 am
     9    3   41 1
    10    4    5 2
    11    4    6 1
    12    6    7 1
    13    6   42 1
    14    6   43 1
    15    7    8 1
    16    7   44 1
    17    7   45 1
    18    8   13 ar
    19    8    9 ar
    20    9   10 ar
    21    9   46 1
    22   10   11 ar
    23   10   47 1
    24   11   12 ar
    25   11   48 1
    26   12   13 ar
    27   12   14 1
    28   13   49 1
    29   14   18 1
    30   14   15 1
    31   15   16 2
    32   15   50 1
    33   16   17 1
    34   16   51 1
    35   17   22 ar
    36   17   18 ar
    37   18   19 ar
    38   19   20 ar
    39   20   21 ar
    40   20   23 1
    41   21   22 ar
    42   22   52 1
    43   23   24 1
    44   23   53 1
    45   24   29 ar
    46   24   25 ar
    47   25   26 ar
    48   25   54 1
    49   26   27 ar
    50   26   34 1
    51   27   28 ar
    52   27   32 1
    53   28   29 ar
    54   28   30 1
    55   29   55 1
    56   30   31 1
    57   31   56 1
    58   31   57 1
    59   31   58 1
    60   32   33 1
    61   33   59 1
    62   33   60 1
    63   33   61 1
    64   34   35 1
    65   35   62 1
    66   35   63 1
    67   35   64 1
@<TRIPOS>MOLECULE
CHEMBL455680
   64    68     0     0     0
SMALL
USER_CHARGES

@<TRIPOS>ATOM
      1 C1         -3.8515   -0.3319    2.9640 C.3       1 <0>        -0.1701
      2 C2         -4.8855   -0.4677    1.8761 C.2       1 <0>         0.5419
      3 O1         -6.0357   -0.7257    2.1615 O.2       1 <0>        -0.5418
      4 N1         -4.5321   -0.3023    0.5861 N.am      1 <0>        -0.6347
      5 C3         -3.2082    0.0106   -0.0609 C.3       1 <0>         0.1716
      6 C4         -3.5734    1.3068   -0.8504 C.3       1 <0>        -0.1277
      7 C5         -5.0380    1.0445   -1.2853 C.3       1 <0>        -0.1267
      8 C6         -5.3277   -0.3752   -0.6911 C.3       1 <0>         0.1748
      9 C7         -4.4567   -1.3285   -1.5055 C.ar      1 <0>        -0.0827
     10 C8         -3.1491   -1.0905   -1.1169 C.ar      1 <0>        -0.1167
     11 C9         -2.1191   -1.8057   -1.6790 C.ar      1 <0>        -0.0703
     12 C10        -2.3936   -2.7651   -2.6381 C.ar      1 <0>        -0.1355
     13 C11        -3.7049   -3.0025   -3.0296 C.ar      1 <0>         0.1533
     14 C12        -4.7320   -2.2805   -2.4546 C.ar      1 <0>        -0.0836
     15 N2         -3.9806   -3.9720   -3.9985 N.pl3     1 <0>        -0.6205
     16 C13        -5.0355   -3.7919   -4.8780 C.ar      1 <0>         0.6230
     17 N3         -5.7000   -2.6457   -4.8636 N.ar      1 <0>        -0.5708
     18 C14        -6.7145   -2.4362   -5.6894 C.ar      1 <0>         0.2793
     19 C15        -7.0806   -3.4303   -6.5760 C.ar      1 <0>        -0.4059
     20 C16        -6.3619   -4.6276   -6.5681 C.ar      1 <0>         0.5196
     21 N4         -5.3514   -4.7677   -5.7159 N.ar      1 <0>        -0.6129
     22 N5         -6.6935   -5.6521   -7.4396 N.pl3     1 <0>        -0.7143
     23 C17        -5.9323   -6.9037   -7.4223 C.3       1 <0>         0.1395
     24 H1         -5.6092   -7.1436   -6.4093 H         1 <0>         0.1224
     25 C18        -4.7183   -6.8212   -8.3806 C.3       1 <0>        -0.1320
     26 C19        -4.4078   -8.2924   -8.7254 C.3       1 <0>        -0.1238
     27 C20        -5.7096   -9.0810   -8.4997 C.3       1 <0>        -0.1330
     28 C21        -6.7677   -8.0626   -8.0209 C.3       1 <0>         0.0034
     29 H2         -7.3627   -7.7086   -8.8628 H         1 <0>         0.1482
     30 N6         -7.6321   -8.6577   -6.9930 N.4       1 <0>        -0.3813
     31 C22        -8.5445   -7.6333   -6.4674 C.3       1 <0>        -0.0553
     32 C23        -8.4131   -9.7526   -7.5838 C.3       1 <0>        -0.0497
     33 C24        -8.2297   -3.2275   -7.5296 C.3       1 <0>         0.5291
     34 F1         -8.7771   -1.9546   -7.3363 F         1 <0>        -0.1651
     35 F2         -7.7693   -3.3422   -8.8457 F         1 <0>        -0.1765
     36 F3         -9.2095   -4.1974   -7.2921 F         1 <0>        -0.1850
     37 H3         -4.3205   -0.4983    3.9338 H         1 <0>         0.0960
     38 H4         -3.0635   -1.0691    2.8103 H         1 <0>         0.0878
     39 H5         -3.4227    0.6697    2.9348 H         1 <0>         0.0902
     40 H6         -2.3494    0.0750    0.6072 H         1 <0>         0.1274
     41 H7         -3.5137    2.1823   -0.2037 H         1 <0>         0.0824
     42 H8         -2.9274    1.4237   -1.7205 H         1 <0>         0.0847
     43 H9         -5.7076    1.7894   -0.8552 H         1 <0>         0.0816
     44 H10        -5.1214    1.0307   -2.3720 H         1 <0>         0.0839
     45 H11        -6.3787   -0.6454   -0.5885 H         1 <0>         0.1238
     46 H12        -1.0999   -1.6197   -1.3740 H         1 <0>         0.1339
     47 H13        -1.5872   -3.3294   -3.0827 H         1 <0>         0.1310
     48 H14        -5.7519   -2.4680   -2.7565 H         1 <0>         0.1346
     49 H15        -3.4332   -4.7708   -4.0549 H         1 <0>         0.4272
     50 H16        -7.2499   -1.4984   -5.6694 H         1 <0>         0.1877
     51 H17        -7.4297   -5.5408   -8.0613 H         1 <0>         0.4159
     52 H18        -4.9801   -6.2654   -9.2810 H         1 <0>         0.0851
     53 H19        -3.8676   -6.3590   -7.8797 H         1 <0>         0.0946
     54 H20        -4.0975   -8.3743   -9.7671 H         1 <0>         0.0885
     55 H21        -3.6231   -8.6717   -8.0707 H         1 <0>         0.0854
     56 H22        -6.0311   -9.5456   -9.4318 H         1 <0>         0.1029
     57 H23        -5.5568   -9.8430   -7.7354 H         1 <0>         0.0896
     58 H24        -9.1598   -7.2442   -7.2787 H         1 <0>         0.1227
     59 H25        -9.1859   -8.0749   -5.7047 H         1 <0>         0.1286
     60 H26        -7.9650   -6.8209   -6.0290 H         1 <0>         0.1226
     61 H27        -7.7361  -10.5126   -7.9737 H         1 <0>         0.1253
     62 H28        -9.0545  -10.1941   -6.8210 H         1 <0>         0.1270
     63 H29        -9.0284   -9.3634   -8.3950 H         1 <0>         0.1232
     64 H30        -7.0625   -9.0179   -6.2420 H         1 <0>         0.4261
@<TRIPOS>BOND
     1    1    2 1
     2    1   37 1
     3    1   38 1
     4    1   39 1
     5    2    3 2
     6    2    4 am
     7    4    8 1
     8    4    5 1
     9    5   10 1
    10    5    6 1
    11    5   40 1
    12    6    7 1
    13    6   41 1
    14    6   42 1
    15    7    8 1
    16    7   43 1
    17    7   44 1
    18    8    9 1
    19    8   45 1
    20    9   14 ar
    21    9   10 ar
    22   10   11 ar
    23   11   12 ar
    24   11   46 1
    25   12   13 ar
    26   12   47 1
    27   13   14 ar
    28   13   15 1
    29   14   48 1
    30   15   16 1
    31   15   49 1
    32   16   21 ar
    33   16   17 ar
    34   17   18 ar
    35   18   19 ar
    36   18   50 1
    37   19   20 ar
    38   19   33 1
    39   20   21 ar
    40   20   22 1
    41   22   23 1
    42   22   51 1
    43   23   24 1
    44   23   28 1
    45   23   25 1
    46   25   26 1
    47   25   52 1
    48   25   53 1
    49   26   27 1
    50   26   54 1
    51   26   55 1
    52   27   28 1
    53   27   56 1
    54   27   57 1
    55   28   29 1
    56   28   30 1
    57   30   31 1
    58   30   32 1
    59   30   64 1
    60   31   58 1
    61   31   59 1
    62   31   60 1
    63   32   61 1
    64   32   62 1
    65   32   63 1
    66   33   34 1
    67   33   35 1
    68   33   36 1
@<TRIPOS>MOLECULE
CHEMBL455680__1
   64    68     0     0     0
SMALL
USER_CHARGES

@<TRIPOS>ATOM
      1 C1         -5.0021    2.1259   -0.7731 C.3       1 <0>        -0.1701
      2 C2         -4.7310    2.0063    0.7045 C.2       1 <0>         0.5423
      3 O1         -5.3658    2.6737    1.4935 O.2       1 <0>        -0.5402
      4 N1         -3.7832    1.1576    1.1492 N.am      1 <0>        -0.6339
      5 C3         -2.8493    0.2245    0.4234 C.3       1 <0>         0.1716
      6 C4         -1.4695    0.7380    0.9422 C.3       1 <0>        -0.1273
      7 C5         -1.7830    1.1530    2.4026 C.3       1 <0>        -0.1287
      8 C6         -3.2990    0.8299    2.5376 C.3       1 <0>         0.1754
      9 C7         -3.3815   -0.6942    2.5068 C.ar      1 <0>        -0.0858
     10 C8         -3.1014   -1.0712    1.1905 C.ar      1 <0>        -0.1174
     11 C9         -3.0949   -2.3977    0.8318 C.ar      1 <0>        -0.0703
     12 C10        -3.3705   -3.3664    1.7811 C.ar      1 <0>        -0.1351
     13 C11        -3.6520   -2.9977    3.0903 C.ar      1 <0>         0.1514
     14 C12        -3.6545   -1.6439    3.4588 C.ar      1 <0>        -0.0802
     15 N2         -3.9307   -3.9773    4.0481 N.pl3     1 <0>        -0.6206
     16 C13        -4.8311   -3.7134    5.0671 C.ar      1 <0>         0.6222
     17 N3         -5.5050   -2.5727    5.0542 N.ar      1 <0>        -0.5704
     18 C14        -6.3747   -2.2847    6.0112 C.ar      1 <0>         0.2796
     19 C15        -6.5778   -3.1899    7.0346 C.ar      1 <0>        -0.4053
     20 C16        -5.8531   -4.3836    7.0216 C.ar      1 <0>         0.5193
     21 N4         -5.0007   -4.6099    6.0271 N.ar      1 <0>        -0.6126
     22 N5         -6.0244   -5.3208    8.0274 N.pl3     1 <0>        -0.7145
     23 C17        -5.2586   -6.5695    8.0033 C.3       1 <0>         0.1398
     24 H1         -4.2649   -6.4035    7.5871 H         1 <0>         0.1225
     25 C18        -6.0132   -7.6607    7.2040 C.3       1 <0>        -0.1322
     26 C19        -5.4553   -8.9884    7.7569 C.3       1 <0>        -0.1237
     27 C20        -4.9181   -8.6863    9.1668 C.3       1 <0>        -0.1329
     28 C21        -5.1640   -7.1829    9.4224 C.3       1 <0>         0.0033
     29 H2         -6.0987   -7.0374    9.9640 H         1 <0>         0.1482
     30 N6         -4.0415   -6.5928   10.1638 N.4       1 <0>        -0.3812
     31 C22        -4.2420   -5.1424   10.2831 C.3       1 <0>        -0.0553
     32 C23        -3.9724   -7.1895   11.5043 C.3       1 <0>        -0.0498
     33 C24        -7.5586   -2.8958    8.1403 C.3       1 <0>         0.5290
     34 F1         -8.1474   -1.6458    7.9211 F         1 <0>        -0.1647
     35 F2         -8.5508   -3.8820    8.1579 F         1 <0>        -0.1766
     36 F3         -6.8883   -2.8867    9.3682 F         1 <0>        -0.1851
     37 H3         -5.7953    2.8549   -0.9391 H         1 <0>         0.0962
     38 H4         -4.0960    2.4523   -1.2835 H         1 <0>         0.0897
     39 H5         -5.3112    1.1570   -1.1654 H         1 <0>         0.0880
     40 H6         -2.9705    0.1677   -0.6583 H         1 <0>         0.1274
     41 H7         -0.7271   -0.0597    0.9186 H         1 <0>         0.0843
     42 H8         -1.1337    1.5966    0.3606 H         1 <0>         0.0826
     43 H9         -1.1967    0.5619    3.1061 H         1 <0>         0.0817
     44 H10        -1.6033    2.2182    2.5481 H         1 <0>         0.0816
     45 H11        -3.8165    1.3278    3.3576 H         1 <0>         0.1241
     46 H12        -2.8761   -2.6831   -0.1866 H         1 <0>         0.1339
     47 H13        -3.3670   -4.4101    1.5035 H         1 <0>         0.1314
     48 H14        -3.8685   -1.3486    4.4754 H         1 <0>         0.1369
     49 H15        -3.4935   -4.8419    3.9990 H         1 <0>         0.4269
     50 H16        -6.9187   -1.3519    5.9916 H         1 <0>         0.1874
     51 H17        -6.6513   -5.1501    8.7477 H         1 <0>         0.4158
     52 H18        -7.0860   -7.5929    7.3849 H         1 <0>         0.0851
     53 H19        -5.7985   -7.5707    6.1392 H         1 <0>         0.0946
     54 H20        -6.2493   -9.7332    7.8115 H         1 <0>         0.0884
     55 H21        -4.6482   -9.3487    7.1191 H         1 <0>         0.0854
     56 H22        -5.4514   -9.2844    9.9057 H         1 <0>         0.1029
     57 H23        -3.8503   -8.9000    9.2132 H         1 <0>         0.0897
     58 H24        -5.1724   -4.9469   10.8162 H         1 <0>         0.1227
     59 H25        -3.4091   -4.7046   10.8332 H         1 <0>         0.1285
     60 H26        -4.2932   -4.6997    9.2884 H         1 <0>         0.1227
     61 H27        -3.8237   -8.2657   11.4158 H         1 <0>         0.1253
     62 H28        -3.1395   -6.7516   12.0545 H         1 <0>         0.1270
     63 H29        -4.9028   -6.9940   12.0375 H         1 <0>         0.1232
     64 H30        -3.1802   -6.7738    9.6703 H         1 <0>         0.4260
@<TRIPOS>BOND
     1    1    2 1
     2    1   37 1
     3    1   38 1
     4    1   39 1
     5    2    3 2
     6    2    4 am
     7    4    8 1
     8    4    5 1
     9    5   10 1
    10    5    6 1
    11    5   40 1
    12    6    7 1
    13    6   41 1
    14    6   42 1
    15    7    8 1
    16    7   43 1
    17    7   44 1
    18    8    9 1
    19    8   45 1
    20    9   14 ar
    21    9   10 ar
    22   10   11 ar
    23   11   12 ar
    24   11   46 1
    25   12   13 ar
    26   12   47 1
    27   13   14 ar
    28   13   15 1
    29   14   48 1
    30   15   16 1
    31   15   49 1
    32   16   21 ar
    33   16   17 ar
    34   17   18 ar
    35   18   19 ar
    36   18   50 1
    37   19   20 ar
    38   19   33 1
    39   20   21 ar
    40   20   22 1
    41   22   23 1
    42   22   51 1
    43   23   24 1
    44   23   28 1
    45   23   25 1
    46   25   26 1
    47   25   52 1
    48   25   53 1
    49   26   27 1
    50   26   54 1
    51   26   55 1
    52   27   28 1
    53   27   56 1
    54   27   57 1
    55   28   29 1
    56   28   30 1
    57   30   31 1
    58   30   32 1
    59   30   64 1
    60   31   58 1
    61   31   59 1
    62   31   60 1
    63   32   61 1
    64   32   62 1
    65   32   63 1
    66   33   34 1
    67   33   35 1
    68   33   36 1
@<TRIPOS>MOLECULE
CHEMBL514409
   69    73     0     0     0
SMALL
USER_CHARGES

@<TRIPOS>ATOM
      1 C1         -0.3920    0.0899   -5.4413 C.3       1 <0>        -0.1441
      2 C2         -0.3226   -1.2849   -4.7735 C.3       1 <0>        -0.6010
      3 S1         -1.8674   -1.6000   -3.8763 S.o2      1 <0>         2.5285
      4 O1         -1.9780   -0.7183   -2.7675 O.2       1 <0>        -1.0275
      5 O2         -2.9434   -1.7505   -4.7923 O.2       1 <0>        -1.0262
      6 N1         -1.6710   -3.1009   -3.2048 N.2       1 <0>        -1.0952
      7 C3         -2.6942   -3.6609   -2.4315 C.ar      1 <0>         0.2749
      8 C4         -3.8786   -2.9590   -2.2318 C.ar      1 <0>        -0.2193
      9 C5         -4.8947   -3.5004   -1.4714 C.ar      1 <0>        -0.0682
     10 C6         -4.7426   -4.7558   -0.8968 C.ar      1 <0>         0.0156
     11 C7         -3.5495   -5.4642   -1.0980 C.ar      1 <0>        -0.0705
     12 C8         -2.5297   -4.9172   -1.8695 C.ar      1 <0>        -0.1247
     13 C9         -3.7028   -6.7408   -0.3682 C.2       1 <0>        -0.1381
     14 C10        -2.7755   -7.7710   -0.2777 C.2       1 <0>         0.2362
     15 C11        -1.4131   -7.5855   -0.8105 C.ar      1 <0>        -0.0768
     16 C12        -0.9035   -8.4748   -1.7607 C.ar      1 <0>        -0.0879
     17 C13         0.3715   -8.2950   -2.2544 C.ar      1 <0>        -0.1234
     18 C14         1.1460   -7.2372   -1.8112 C.ar      1 <0>        -0.0987
     19 C15         0.6485   -6.3528   -0.8702 C.ar      1 <0>        -0.1136
     20 C16        -0.6271   -6.5162   -0.3720 C.ar      1 <0>        -0.0738
     21 N2         -3.1270   -8.9608    0.3073 N.pl3     1 <0>        -0.6560
     22 C17        -2.4484   -9.4079    1.4437 C.ar      1 <0>         0.2555
     23 C18        -1.5572   -8.5668    2.0984 C.ar      1 <0>        -0.1765
     24 C19        -0.8885   -9.0118    3.2217 C.ar      1 <0>        -0.0489
     25 C20        -1.1048  -10.2932    3.6949 C.ar      1 <0>        -0.2276
     26 C21        -1.9909  -11.1331    3.0454 C.ar      1 <0>        -0.0470
     27 C22        -2.6676  -10.6925    1.9251 C.ar      1 <0>        -0.1821
     28 C23        -0.3728  -10.7754    4.9207 C.3       1 <0>         0.0551
     29 N3         -1.1644  -10.4632    6.1182 N.4       1 <0>        -0.3817
     30 C24        -1.2705   -9.0068    6.2668 C.3       1 <0>        -0.0123
     31 C25        -2.1615   -8.6763    7.4661 C.3       1 <0>        -0.1453
     32 C26        -1.5459   -9.2768    8.7333 C.3       1 <0>        -0.1378
     33 C27        -1.3713  -10.7857    8.5384 C.3       1 <0>        -0.1455
     34 C28        -0.5096  -11.0381    7.2994 C.3       1 <0>        -0.0067
     35 C29        -4.9935   -6.6962    0.2208 C.2       1 <0>         0.5552
     36 O3         -5.4894   -7.5730    0.9073 O.2       1 <0>        -0.5423
     37 N4         -5.5802   -5.5311   -0.1007 N.am      1 <0>        -0.6404
     38 H1          0.5362    0.2793   -5.9804 H         1 <0>         0.0697
     39 H2         -1.2288    0.1129   -6.1394 H         1 <0>         0.0653
     40 H3         -0.5329    0.8570   -4.6799 H         1 <0>         0.0649
     41 H4         -0.1817   -2.0520   -5.5350 H         1 <0>         0.1196
     42 H5          0.5141   -1.3079   -4.0754 H         1 <0>         0.1191
     43 H6         -4.0036   -1.9822   -2.6752 H         1 <0>         0.1124
     44 H7         -5.8100   -2.9468   -1.3223 H         1 <0>         0.1108
     45 H8         -1.6131   -5.4665   -2.0264 H         1 <0>         0.1271
     46 H9         -1.5067   -9.3009   -2.1072 H         1 <0>         0.1193
     47 H10         0.7667   -8.9816   -2.9885 H         1 <0>         0.1238
     48 H11         2.1439   -7.1014   -2.2014 H         1 <0>         0.1237
     49 H12         1.2588   -5.5298   -0.5287 H         1 <0>         0.1284
     50 H13        -1.0159   -5.8225    0.3588 H         1 <0>         0.1268
     51 H14        -3.8468   -9.4918   -0.0681 H         1 <0>         0.4194
     52 H15        -1.3873   -7.5663    1.7290 H         1 <0>         0.1373
     53 H16        -0.1956   -8.3585    3.7311 H         1 <0>         0.1275
     54 H17        -2.1569  -12.1335    3.4172 H         1 <0>         0.1271
     55 H18        -3.3628  -11.3475    1.4210 H         1 <0>         0.1330
     56 H19        -0.2238  -11.8531    4.8544 H         1 <0>         0.1300
     57 H20         0.5950  -10.2781    4.9852 H         1 <0>         0.1287
     58 H21        -0.2780   -8.5849    6.4248 H         1 <0>         0.1254
     59 H22        -1.7058   -8.5806    5.3629 H         1 <0>         0.1341
     60 H23        -2.2376   -7.5945    7.5758 H         1 <0>         0.1098
     61 H24        -3.1545   -9.0975    7.3090 H         1 <0>         0.0861
     62 H25        -0.5746   -8.8184    8.9191 H         1 <0>         0.0803
     63 H26        -2.2054   -9.0927    9.5814 H         1 <0>         0.0909
     64 H27        -0.8825  -11.2116    9.4146 H         1 <0>         0.1085
     65 H28        -2.3478  -11.2507    8.4035 H         1 <0>         0.0859
     66 H29        -0.3831  -12.1114    7.1578 H         1 <0>         0.1272
     67 H30         0.4667  -10.5729    7.4354 H         1 <0>         0.1261
     68 H31        -6.4684   -5.2655    0.1846 H         1 <0>         0.4093
     69 H32        -2.0882  -10.8576    6.0217 H         1 <0>         0.4203
@<TRIPOS>BOND
     1    1    2 1
     2    1   38 1
     3    1   39 1
     4    1   40 1
     5    2    3 1
     6    2   41 1
     7    2   42 1
     8    3    4 2
     9    3    5 2
    10    3    6 1
    11    6    7 1
    12    7   12 ar
    13    7    8 ar
    14    8    9 ar
    15    8   43 1
    16    9   10 ar
    17    9   44 1
    18   10   37 1
    19   10   11 ar
    20   11   12 ar
    21   11   13 1
    22   12   45 1
    23   13   14 2
    24   13   35 1
    25   14   15 1
    26   14   21 1
    27   15   20 ar
    28   15   16 ar
    29   16   17 ar
    30   16   46 1
    31   17   18 ar
    32   17   47 1
    33   18   19 ar
    34   18   48 1
    35   19   20 ar
    36   19   49 1
    37   20   50 1
    38   21   22 1
    39   21   51 1
    40   22   27 ar
    41   22   23 ar
    42   23   24 ar
    43   23   52 1
    44   24   25 ar
    45   24   53 1
    46   25   26 ar
    47   25   28 1
    48   26   27 ar
    49   26   54 1
    50   27   55 1
    51   28   29 1
    52   28   56 1
    53   28   57 1
    54   29   34 1
    55   29   30 1
    56   29   69 1
    57   30   31 1
    58   30   58 1
    59   30   59 1
    60   31   32 1
    61   31   60 1
    62   31   61 1
    63   32   33 1
    64   32   62 1
    65   32   63 1
    66   33   34 1
    67   33   64 1
    68   33   65 1
    69   34   66 1
    70   34   67 1
    71   35   36 2
    72   35   37 am
    73   37   68 1
@<TRIPOS>MOLECULE
CHEMBL514409__1
   69    73     0     0     0
SMALL
USER_CHARGES

@<TRIPOS>ATOM
      1 C1         -2.0590    1.2754   -2.7878 C.3       1 <0>        -0.1449
      2 C2         -1.7269   -0.1884   -2.4915 C.3       1 <0>        -0.6010
      3 S1         -3.1616   -0.9906   -1.7243 S.o2      1 <0>         2.5291
      4 O1         -3.3886   -0.4525   -0.4289 O.2       1 <0>        -1.0244
      5 O2         -4.2241   -1.0941   -2.6622 O.2       1 <0>        -1.0274
      6 N1         -2.6822   -2.5526   -1.4549 N.2       1 <0>        -1.1021
      7 C3         -3.5648   -3.4633   -0.8631 C.ar      1 <0>         0.2720
      8 C4         -4.8468   -3.0577   -0.5064 C.ar      1 <0>        -0.2172
      9 C5         -5.7261   -3.9462    0.0778 C.ar      1 <0>        -0.0693
     10 C6         -5.3367   -5.2582    0.3154 C.ar      1 <0>         0.0261
     11 C7         -4.0450   -5.6680   -0.0441 C.ar      1 <0>        -0.0729
     12 C8         -3.1634   -4.7707   -0.6376 C.ar      1 <0>        -0.1266
     13 C9         -3.9472   -7.0938    0.3342 C.2       1 <0>        -0.1437
     14 C10        -2.8507   -7.9308    0.1712 C.2       1 <0>         0.2380
     15 C11        -2.9749   -9.3724    0.4551 C.ar      1 <0>        -0.0681
     16 C12        -3.9967  -10.1194   -0.1377 C.ar      1 <0>        -0.0557
     17 C13        -4.1067  -11.4672    0.1326 C.ar      1 <0>        -0.1220
     18 C14        -3.2084  -12.0804    0.9885 C.ar      1 <0>        -0.1044
     19 C15        -2.1944  -11.3471    1.5795 C.ar      1 <0>        -0.1267
     20 C16        -2.0681   -9.9998    1.3139 C.ar      1 <0>        -0.0885
     21 N2         -1.6523   -7.4163   -0.2538 N.pl3     1 <0>        -0.6596
     22 C17        -1.0590   -7.9010   -1.4221 C.ar      1 <0>         0.2490
     23 C18        -1.7600   -8.7679   -2.2510 C.ar      1 <0>        -0.1736
     24 C19        -1.1707   -9.2448   -3.4053 C.ar      1 <0>        -0.0505
     25 C20         0.1159   -8.8607   -3.7362 C.ar      1 <0>        -0.2237
     26 C21         0.8168   -7.9982   -2.9132 C.ar      1 <0>        -0.0465
     27 C22         0.2313   -7.5127   -1.7605 C.ar      1 <0>        -0.1762
     28 C23         0.7559   -9.3835   -4.9964 C.3       1 <0>         0.0550
     29 N3          0.4600   -8.4725   -6.1102 N.4       1 <0>        -0.3823
     30 C24        -0.9847   -8.4723   -6.3696 C.3       1 <0>        -0.0118
     31 C25        -1.3082   -7.4645   -7.4747 C.3       1 <0>        -0.1465
     32 C26        -0.5588   -7.8570   -8.7513 C.3       1 <0>        -0.1373
     33 C27         0.9411   -7.9265   -8.4501 C.3       1 <0>        -0.1460
     34 C28         1.1812   -8.9171   -7.3089 C.3       1 <0>        -0.0061
     35 C29        -5.2054   -7.4307    0.8984 C.2       1 <0>         0.5566
     36 O3         -5.5163   -8.5266    1.3323 O.2       1 <0>        -0.5229
     37 N4         -5.9981   -6.3462    0.8769 N.am      1 <0>        -0.6447
     38 H1         -1.1970    1.7575   -3.2488 H         1 <0>         0.0694
     39 H2         -2.9095    1.3246   -3.4678 H         1 <0>         0.0652
     40 H3         -2.3073    1.7871   -1.8579 H         1 <0>         0.0663
     41 H4         -1.4787   -0.7000   -3.4214 H         1 <0>         0.1166
     42 H5         -0.8764   -0.2375   -1.8115 H         1 <0>         0.1190
     43 H6         -5.1562   -2.0390   -0.6879 H         1 <0>         0.1123
     44 H7         -6.7190   -3.6209    0.3511 H         1 <0>         0.1123
     45 H8         -2.1702   -5.0898   -0.9174 H         1 <0>         0.1132
     46 H9         -4.6986   -9.6421   -0.8055 H         1 <0>         0.1196
     47 H10        -4.8959  -12.0456   -0.3244 H         1 <0>         0.1234
     48 H11        -3.2995  -13.1362    1.1964 H         1 <0>         0.1216
     49 H12        -1.4973  -11.8323    2.2467 H         1 <0>         0.1229
     50 H13        -1.2733   -9.4298    1.7720 H         1 <0>         0.1197
     51 H14        -1.2168   -6.7159    0.2568 H         1 <0>         0.4221
     52 H15        -2.7646   -9.0689   -1.9928 H         1 <0>         0.1357
     53 H16        -1.7151   -9.9187   -4.0502 H         1 <0>         0.1267
     54 H17         1.8217   -7.7008   -3.1742 H         1 <0>         0.1285
     55 H18         0.7775   -6.8357   -1.1205 H         1 <0>         0.1364
     56 H19         1.8350   -9.4476   -4.8563 H         1 <0>         0.1301
     57 H20         0.3593  -10.3735   -5.2216 H         1 <0>         0.1279
     58 H21        -1.2971   -9.4682   -6.6839 H         1 <0>         0.1241
     59 H22        -1.5168   -8.1960   -5.4594 H         1 <0>         0.1348
     60 H23        -2.3811   -7.4672   -7.6671 H         1 <0>         0.1102
     61 H24        -0.9964   -6.4682   -7.1613 H         1 <0>         0.0886
     62 H25        -0.9074   -8.8314   -9.0936 H         1 <0>         0.0791
     63 H26        -0.7410   -7.1110   -9.5248 H         1 <0>         0.0912
     64 H27         1.4759   -8.2593   -9.3396 H         1 <0>         0.1080
     65 H28         1.2996   -6.9397   -8.1569 H         1 <0>         0.0870
     66 H29         2.2482   -8.9692   -7.0920 H         1 <0>         0.1269
     67 H30         0.8227   -9.9035   -7.6031 H         1 <0>         0.1252
     68 H31        -6.9092   -6.3243    1.2089 H         1 <0>         0.4108
     69 H32         0.7563   -7.5390   -5.8676 H         1 <0>         0.4220
@<TRIPOS>BOND
     1    1    2 1
     2    1   38 1
     3    1   39 1
     4    1   40 1
     5    2    3 1
     6    2   41 1
     7    2   42 1
     8    3    4 2
     9    3    5 2
    10    3    6 1
    11    6    7 1
    12    7   12 ar
    13    7    8 ar
    14    8    9 ar
    15    8   43 1
    16    9   10 ar
    17    9   44 1
    18   10   37 1
    19   10   11 ar
    20   11   12 ar
    21   11   13 1
    22   12   45 1
    23   13   14 2
    24   13   35 1
    25   14   15 1
    26   14   21 1
    27   15   20 ar
    28   15   16 ar
    29   16   17 ar
    30   16   46 1
    31   17   18 ar
    32   17   47 1
    33   18   19 ar
    34   18   48 1
    35   19   20 ar
    36   19   49 1
    37   20   50 1
    38   21   22 1
    39   21   51 1
    40   22   27 ar
    41   22   23 ar
    42   23   24 ar
    43   23   52 1
    44   24   25 ar
    45   24   53 1
    46   25   26 ar
    47   25   28 1
    48   26   27 ar
    49   26   54 1
    50   27   55 1
    51   28   29 1
    52   28   56 1
    53   28   57 1
    54   29   34 1
    55   29   30 1
    56   29   69 1
    57   30   31 1
    58   30   58 1
    59   30   59 1
    60   31   32 1
    61   31   60 1
    62   31   61 1
    63   32   33 1
    64   32   62 1
    65   32   63 1
    66   33   34 1
    67   33   64 1
    68   33   65 1
    69   34   66 1
    70   34   67 1
    71   35   36 2
    72   35   37 am
    73   37   68 1
@<TRIPOS>MOLECULE
CHEMBL380312
   58    61     0     0     0
SMALL
USER_CHARGES

@<TRIPOS>ATOM
      1 C1         -0.1447   -3.9262    4.1279 C.3       1 <0>         0.0259
      2 O1         -0.0894   -3.5651    2.7464 O.3       1 <0>        -0.2993
      3 C2          0.5702   -2.4176    2.4341 C.ar      1 <0>         0.1697
      4 C3          1.1558   -1.6600    3.4363 C.ar      1 <0>        -0.2278
      5 C4          1.8292   -0.4884    3.1177 C.ar      1 <0>         0.2438
      6 C5          1.9163   -0.0746    1.7953 C.ar      1 <0>        -0.2648
      7 C6          1.3309   -0.8309    0.7921 C.ar      1 <0>         0.1710
      8 C7          0.6623   -2.0072    1.1095 C.ar      1 <0>         0.0101
      9 O2          0.0925   -2.7542    0.1238 O.3       1 <0>        -0.3106
     10 C8         -1.2621   -2.4532   -0.2176 C.3       1 <0>         0.0344
     11 O3          1.4159   -0.4252   -0.5031 O.3       1 <0>        -0.2991
     12 C9          2.1234    0.7901   -0.7571 C.3       1 <0>         0.0243
     13 N1          2.4204    0.2763    4.1305 N.pl3     1 <0>        -0.6345
     14 C10         2.9651   -0.3478    5.2417 C.ar      1 <0>         0.5776
     15 N2          3.0186   -1.6743    5.2683 N.ar      1 <0>        -0.5556
     16 C11         3.5291   -2.3166    6.3049 C.ar      1 <0>         0.2432
     17 C12         4.0145   -1.5713    7.3785 C.ar      1 <0>        -0.2521
     18 C13         4.6339   -1.8921    8.6658 C.2       1 <0>        -0.1322
     19 C14         4.8879   -0.7257    9.2782 C.2       1 <0>         0.0369
     20 N3          4.4794    0.3184    8.4832 N.pl3     1 <0>        -0.4100
     21 C15         3.9422   -0.1638    7.3174 C.ar      1 <0>         0.3812
     22 N4          3.4177    0.3999    6.2344 N.ar      1 <0>        -0.5460
     23 C16         4.5939    1.6700    8.8140 C.ar      1 <0>         0.3493
     24 C17         5.1654    2.0352   10.0314 C.ar      1 <0>        -0.1626
     25 C18         5.2755    3.3763   10.3523 C.ar      1 <0>        -0.0495
     26 C19         4.8096    4.3164    9.4439 C.ar      1 <0>        -0.1251
     27 C20         4.2495    3.8834    8.2458 C.ar      1 <0>         0.1111
     28 N5          4.1645    2.5874    7.9679 N.ar      1 <0>        -0.4569
     29 C21         3.7487    4.8778    7.2684 C.2       1 <0>         0.5777
     30 O4          3.8280    6.0651    7.5146 O.2       1 <0>        -0.5217
     31 N6          3.2051    4.4655    6.1060 N.am      1 <0>        -0.7104
     32 C22         2.7099    5.4488    5.1395 C.3       1 <0>         0.1208
     33 C23         2.1471    4.7226    3.9160 C.3       1 <0>        -0.0376
     34 C24         1.6496    5.7106    2.9449 C.1       1 <0>         0.2034
     35 N7          1.2656    6.4730    2.1954 N.1       1 <0>        -0.4149
     36 H1         -0.6461   -3.1380    4.6896 H         1 <0>         0.0533
     37 H2         -0.6980   -4.8589    4.2378 H         1 <0>         0.1019
     38 H3          0.8676   -4.0570    4.5101 H         1 <0>         0.0624
     39 H4          1.0879   -1.9809    4.4653 H         1 <0>         0.1494
     40 H5          2.4400    0.8371    1.5483 H         1 <0>         0.1370
     41 H6         -1.5928   -3.1196   -1.0142 H         1 <0>         0.0914
     42 H7         -1.8966   -2.5907    0.6580 H         1 <0>         0.0433
     43 H8         -1.3301   -1.4196   -0.5569 H         1 <0>         0.0430
     44 H9          2.1162    0.9979   -1.8271 H         1 <0>         0.1033
     45 H10         1.6409    1.6096   -0.2245 H         1 <0>         0.0564
     46 H11         3.1530    0.6897   -0.4134 H         1 <0>         0.0583
     47 H12         2.4487    1.2429    4.0545 H         1 <0>         0.4217
     48 H13         3.5691   -3.3958    6.3199 H         1 <0>         0.1776
     49 H14         4.8453   -2.8793    9.0494 H         1 <0>         0.1661
     50 H15         5.3451   -0.6226   10.2512 H         1 <0>         0.1861
     51 H16         5.5183    1.2793   10.7172 H         1 <0>         0.1491
     52 H17         5.7143    3.6850   11.2896 H         1 <0>         0.1558
     53 H18         4.8805    5.3712    9.6643 H         1 <0>         0.1570
     54 H19         3.1417    3.5178    5.9095 H         1 <0>         0.4175
     55 H20         1.9238    6.0471    5.6002 H         1 <0>         0.0831
     56 H21         3.5283    6.0994    4.8313 H         1 <0>         0.0832
     57 H22         2.9332    4.1243    3.4553 H         1 <0>         0.1164
     58 H23         1.3287    4.0720    4.2242 H         1 <0>         0.1173
@<TRIPOS>BOND
     1    1    2 1
     2    1   36 1
     3    1   37 1
     4    1   38 1
     5    2    3 1
     6    3    8 ar
     7    3    4 ar
     8    4    5 ar
     9    4   39 1
    10    5    6 ar
    11    5   13 1
    12    6    7 ar
    13    6   40 1
    14    7    8 ar
    15    7   11 1
    16    8    9 1
    17    9   10 1
    18   10   41 1
    19   10   42 1
    20   10   43 1
    21   11   12 1
    22   12   44 1
    23   12   45 1
    24   12   46 1
    25   13   14 1
    26   13   47 1
    27   14   22 ar
    28   14   15 ar
    29   15   16 ar
    30   16   17 ar
    31   16   48 1
    32   17   21 ar
    33   17   18 1
    34   18   19 2
    35   18   49 1
    36   19   20 1
    37   19   50 1
    38   20   21 1
    39   20   23 1
    40   21   22 ar
    41   23   28 ar
    42   23   24 ar
    43   24   25 ar
    44   24   51 1
    45   25   26 ar
    46   25   52 1
    47   26   27 ar
    48   26   53 1
    49   27   28 ar
    50   27   29 1
    51   29   30 2
    52   29   31 am
    53   31   32 1
    54   31   54 1
    55   32   33 1
    56   32   55 1
    57   32   56 1
    58   33   34 1
    59   33   57 1
    60   33   58 1
    61   34   35 3
