@<TRIPOS>MOLECULE
3BZ3-YAM
 55 58 0 0 0
SMALL
SF_CHARGES


@<TRIPOS>ATOM
1    C         7.2060    1.7490    8.4340  C.3        1 SUBUNIT      0.1447
2    C         6.4770    4.4940   10.5380  C.3        1 SUBUNIT     -0.1301
3    N        14.2790    3.8010    6.7730  N.2        1 SUBUNIT     -0.5166
4    C        13.9140    4.9040    7.4010  C.2        1 SUBUNIT      0.1814
5    C        12.5840    5.2750    7.4520  C.2        1 SUBUNIT     -0.1160
6    C         7.9820    4.1550    6.2180  C.2        1 SUBUNIT     -0.0679
7    C         7.0960    3.9320    7.2730  C.2        1 SUBUNIT      0.3945
8    C        11.7980   -0.2350    2.6010  C.2        1 SUBUNIT      0.1190
9    C        12.2360    6.5400    8.2100  C.3        1 SUBUNIT      0.7960
10   C         6.2440    5.3390    5.0870  C.2        1 SUBUNIT     -0.1167
11   C        11.7640    1.0410    4.6440  C.2        1 SUBUNIT     -0.1105
12   C         5.4100    5.0740    6.1560  C.2        1 SUBUNIT      0.1774
13   O         8.7670    5.0540    9.2680  O.2        1 SUBUNIT     -0.6168
14   S         8.0250    3.9480    9.7600  S.o2       1 SUBUNIT      1.2873
15   O         8.6220    2.8850   10.4820  O.2        1 SUBUNIT     -0.6168
16   N         7.4760    3.1920    8.3950  N.pl3      1 SUBUNIT     -0.4688
17   C         7.5450    4.8560    5.1080  C.2        1 SUBUNIT     -0.1039
18   N         5.8430    4.3860    7.2030  N.2        1 SUBUNIT     -0.5142
19   C         9.3970    3.6440    6.2570  C.3        1 SUBUNIT      0.1781
20   N        10.2950    4.6680    6.8030  N.pl3      1 SUBUNIT     -0.5700
21   C        11.6570    4.4380    6.7960  C.2        1 SUBUNIT      0.3848
22   F        11.3120    6.2820    9.2180  F          1 SUBUNIT     -0.2764
23   F        11.7330    7.5280    7.3710  F          1 SUBUNIT     -0.2764
24   F        13.3970    7.0620    8.7780  F          1 SUBUNIT     -0.2764
25   N        12.1030    3.3470    6.1710  N.2        1 SUBUNIT     -0.5540
26   C        13.3890    3.0320    6.1780  C.2        1 SUBUNIT      0.6584
27   N        13.8880    1.9310    5.5100  N.pl3      1 SUBUNIT     -0.5404
28   C        13.1490    1.1950    4.5730  C.2        1 SUBUNIT      0.1068
29   C        13.8490    0.6270    3.5140  C.2        1 SUBUNIT     -0.1247
30   C        13.1810   -0.0890    2.5510  C.2        1 SUBUNIT     -0.0584
31   C        13.6520   -0.8140    1.3110  C.3        1 SUBUNIT     -0.0473
32   C        11.0890    0.3320    3.6640  C.2        1 SUBUNIT     -0.1204
33   N        11.3590   -0.9520    1.4890  N.am       1 SUBUNIT     -0.5357
34   C        12.3740   -1.3540    0.7050  C.2        1 SUBUNIT      0.6335
35   O        12.2760   -2.0020   -0.3200  O.2        1 SUBUNIT     -0.5474
36   H         6.1327    1.5482    8.3514  H          1 SUBUNIT      0.0391
37   H         7.5595    1.3089    9.3723  H          1 SUBUNIT      0.0391
38   H         7.7093    1.2332    7.6096  H          1 SUBUNIT      0.0391
39   H         6.6764    5.1657   11.3795  H          1 SUBUNIT      0.0578
40   H         5.9058    3.6401   10.9170  H          1 SUBUNIT      0.0578
41   H         5.8456    5.0301    9.8217  H          1 SUBUNIT      0.0578
42   H        14.6754    5.5029    7.8693  H          1 SUBUNIT      0.0896
43   H         5.8872    5.9129    4.2497  H          1 SUBUNIT      0.1183
44   H        11.2146    1.4734    5.4619  H          1 SUBUNIT      0.1190
45   H         4.3917    5.4217    6.1587  H          1 SUBUNIT      0.0917
46   H         8.2048    5.0233    4.2747  H          1 SUBUNIT      0.1198
47   H         9.4474    2.7528    6.8912  H          1 SUBUNIT      0.0416
48   H         9.7229    3.3900    5.2430  H          1 SUBUNIT      0.0416
49   H         9.9517    5.5358    7.1840  H          1 SUBUNIT      0.3347
50   H        14.8340    1.6475    5.7118  H          1 SUBUNIT      0.3304
51   H        14.9162    0.7451    3.4433  H          1 SUBUNIT      0.1185
52   H        14.1506   -0.1246    0.6216  H          1 SUBUNIT      0.0522
53   H        14.3357   -1.6287    1.5714  H          1 SUBUNIT      0.0522
54   H        10.0205    0.2205    3.7251  H          1 SUBUNIT      0.1160
55   H        10.3936   -1.1548    1.2816  H          1 SUBUNIT      0.3275
@<TRIPOS>BOND
     1    1   16 1
     2    2   14 1
     3    3    4 2
     4    3   26 1
     5    4    5 1
     6    5    9 1
     7    5   21 2
     8    6    7 2
     9    6   17 1
    10    6   19 1
    11    7   16 1
    12    7   18 1
    13    8   30 2
    14    8   32 1
    15    8   33 1
    16    9   22 1
    17    9   23 1
    18    9   24 1
    19   10   12 1
    20   10   17 2
    21   11   28 1
    22   11   32 2
    23   12   18 2
    24   13   14 2
    25   14   15 2
    26   14   16 1
    27   19   20 1
    28   20   21 1
    29   21   25 1
    30   25   26 2
    31   26   27 1
    32   27   28 1
    33   28   29 2
    34   29   30 1
    35   30   31 1
    36   31   34 1
    37   33   34 1
    38   34   35 2
    39    1   36 1
    40    1   37 1
    41    1   38 1
    42    2   39 1
    43    2   40 1
    44    2   41 1
    45    4   42 1
    46   10   43 1
    47   11   44 1
    48   12   45 1
    49   17   46 1
    50   19   47 1
    51   19   48 1
    52   20   49 1
    53   27   50 1
    54   29   51 1
    55   31   52 1
    56   31   53 1
    57   32   54 1
    58   33   55 1
