@<TRIPOS>MOLECULE
1YPE-UIP
 65 70 0 0 0
SMALL
SF_CHARGES


@<TRIPOS>ATOM
1    N        10.4780  -11.8790   24.1020  N.pl3      1 SUBUNIT     -0.6008
2    C        11.2010  -10.8070   23.7380  C.2        1 SUBUNIT      0.3731
3    N        10.8160   -9.6400   24.3190  N.pl3      1 SUBUNIT     -0.6008
4    C        12.2760  -10.9070   22.8150  C.2        1 SUBUNIT     -0.0087
5    C        12.5950  -12.1660   22.2840  C.2        1 SUBUNIT     -0.0849
6    C        13.6580  -12.3050   21.3750  C.2        1 SUBUNIT     -0.0856
7    C        14.4080  -11.1940   20.9800  C.2        1 SUBUNIT     -0.0309
8    C        14.0640   -9.9390   21.5120  C.2        1 SUBUNIT     -0.0856
9    C        13.0340   -9.7900   22.4220  C.2        1 SUBUNIT     -0.0849
10   C        15.5400  -11.3240   19.9990  C.3        1 SUBUNIT      0.2210
11   N        15.3840  -12.5390   19.1310  N.4        1 SUBUNIT     -0.3355
12   C        14.3780  -12.4050   18.0400  C.3        1 SUBUNIT      0.1534
13   C        15.1810  -12.4830   16.7170  C.3        1 SUBUNIT     -0.0516
14   C        16.5850  -12.0440   17.0900  C.3        1 SUBUNIT     -0.0536
15   C        16.7410  -12.7050   18.4770  C.3        1 SUBUNIT      0.1894
16   C        17.7720  -11.8600   19.2980  C.3        1 SUBUNIT     -0.0341
17   C        18.8750  -12.8050   19.8750  C.3        1 SUBUNIT      0.2021
18   N        18.3590  -13.2410   21.1420  N.am       1 SUBUNIT     -0.4601
19   C        17.1700  -12.6420   21.4890  C.2        1 SUBUNIT      0.6538
20   O        16.6000  -12.7760   22.6030  O.2        1 SUBUNIT     -0.5284
21   C        16.9660  -11.4190   20.5600  C.3        1 SUBUNIT     -0.0340
22   C        18.8590  -14.4250   21.9280  C.3        1 SUBUNIT      0.1961
23   C        19.8900  -14.1260   22.9970  C.2        1 SUBUNIT     -0.0299
24   C        19.4920  -13.6940   24.3040  C.2        1 SUBUNIT     -0.0880
25   C        20.3820  -13.3700   25.3500  C.2        1 SUBUNIT     -0.0989
26   C        21.7340  -13.4580   25.0110  C.2        1 SUBUNIT      0.1560
27   O        22.8270  -13.0620   25.7580  O.3        1 SUBUNIT     -0.3856
28   C        23.9540  -13.7110   25.0730  C.3        1 SUBUNIT      0.4732
29   O        23.5520  -14.1020   23.7340  O.3        1 SUBUNIT     -0.3862
30   C        22.1660  -13.8890   23.7400  C.2        1 SUBUNIT      0.1548
31   C        21.2620  -14.2250   22.7050  C.2        1 SUBUNIT     -0.1036
32   C        20.2760  -12.1470   19.9730  C.3        1 SUBUNIT     -0.0575
33   C        20.9020  -12.0300   18.5770  C.3        1 SUBUNIT     -0.0850
34   H        10.6942  -12.7862   23.7196  H          1 SUBUNIT      0.3281
35   H        11.3036   -8.7846   24.1031  H          1 SUBUNIT      0.3281
36   H        10.0429   -9.6300   24.9658  H          1 SUBUNIT      0.3281
37   H        12.0222  -13.0292   22.5748  H          1 SUBUNIT      0.1221
38   H        13.8991  -13.2754   20.9776  H          1 SUBUNIT      0.1214
39   H        14.6125   -9.0647   21.2078  H          1 SUBUNIT      0.1214
40   H        12.8192   -8.8155   22.8246  H          1 SUBUNIT      0.1221
41   H        15.4386  -10.3755   19.4613  H          1 SUBUNIT      0.0413
42   H        15.0608  -13.3060   19.6997  H          1 SUBUNIT      0.3161
43   H        13.6490  -13.2197   18.1017  H          1 SUBUNIT      0.0473
44   H        13.8601  -11.4440   18.1251  H          1 SUBUNIT      0.0473
45   H        15.1920  -13.5063   16.3274  H          1 SUBUNIT      0.0620
46   H        14.7581  -11.8098   15.9641  H          1 SUBUNIT      0.0620
47   H        17.3241  -12.4216   16.3757  H          1 SUBUNIT      0.0617
48   H        16.6591  -10.9532   17.1503  H          1 SUBUNIT      0.0617
49   H        17.0535  -13.7530   18.4214  H          1 SUBUNIT      0.0446
50   H        18.2080  -11.0587   18.6923  H          1 SUBUNIT      0.0590
51   H        19.0510  -13.6816   19.2429  H          1 SUBUNIT      0.0430
52   H        17.2163  -10.4926   21.0874  H          1 SUBUNIT      0.0562
53   H        17.9956  -14.8907   22.4145  H          1 SUBUNIT      0.0416
54   H        19.3044  -15.1313   21.2196  H          1 SUBUNIT      0.0416
55   H        18.4396  -13.6078   24.5109  H          1 SUBUNIT      0.1205
56   H        20.0509  -13.0781   26.3313  H          1 SUBUNIT      0.1210
57   H        24.7951  -13.0128   25.0083  H          1 SUBUNIT      0.0252
58   H        24.2600  -14.6010   25.6327  H          1 SUBUNIT      0.0252
59   H        21.6060  -14.5426   21.7362  H          1 SUBUNIT      0.1233
60   H        20.1794  -11.1471   20.4088  H          1 SUBUNIT      0.0658
61   H        20.9236  -12.7612   20.6073  H          1 SUBUNIT      0.0658
62   H        21.0151  -13.0157   18.1138  H          1 SUBUNIT      0.0698
63   H        21.8928  -11.5668   18.6288  H          1 SUBUNIT      0.0698
64   H        20.2783  -11.4177   17.9173  H          1 SUBUNIT      0.0698
65   H         9.7010  -11.9078   24.7435  H          1 SUBUNIT      0.3281
@<TRIPOS>BOND
     1    1    2 2
     2    2    3 1
     3    2    4 1
     4    4    5 2
     5    4    9 1
     6    5    6 1
     7    6    7 2
     8    7    8 1
     9    7   10 1
    10    8    9 2
    11   10   11 1
    12   10   21 1
    13   11   12 1
    14   11   15 1
    15   12   13 1
    16   13   14 1
    17   14   15 1
    18   15   16 1
    19   16   17 1
    20   16   21 1
    21   17   18 1
    22   17   32 1
    23   18   19 1
    24   18   22 1
    25   19   20 2
    26   19   21 1
    27   22   23 1
    28   23   24 1
    29   23   31 2
    30   24   25 2
    31   25   26 1
    32   26   27 1
    33   26   30 2
    34   27   28 1
    35   28   29 1
    36   29   30 1
    37   30   31 1
    38   32   33 1
    39    1   34 1
    40    3   35 1
    41    3   36 1
    42    5   37 1
    43    6   38 1
    44    8   39 1
    45    9   40 1
    46   10   41 1
    47   11   42 1
    48   12   43 1
    49   12   44 1
    50   13   45 1
    51   13   46 1
    52   14   47 1
    53   14   48 1
    54   15   49 1
    55   16   50 1
    56   17   51 1
    57   21   52 1
    58   22   53 1
    59   22   54 1
    60   24   55 1
    61   25   56 1
    62   28   57 1
    63   28   58 1
    64   31   59 1
    65   32   60 1
    66   32   61 1
    67   33   62 1
    68   33   63 1
    69   33   64 1
    70    1   65 1
