@<TRIPOS>MOLECULE
CHEMBL192145
   41    43     0     0     0
SMALL
USER_CHARGES

@<TRIPOS>ATOM
      1 C1         -2.8670    1.8403   -1.1342 C.3       1 <0>         0.0233
      2 O1         -2.9721    0.4508   -1.4508 O.3       1 <0>        -0.3095
      3 C2         -2.6830   -0.4317   -0.4583 C.ar      1 <0>         0.1360
      4 C3         -2.3114    0.0317    0.7962 C.ar      1 <0>        -0.1685
      5 C4         -2.0171   -0.8640    1.8068 C.ar      1 <0>        -0.0583
      6 C5         -2.0916   -2.2238    1.5718 C.ar      1 <0>        -0.0695
      7 C6         -2.4633   -2.6934    0.3171 C.ar      1 <0>        -0.0783
      8 C7         -2.7647   -1.7942   -0.6970 C.ar      1 <0>        -0.0802
      9 S1         -2.5581   -4.4270    0.0164 S.3       1 <0>         0.1250
     10 C8         -0.8754   -4.9241   -0.1457 C.2       1 <0>         0.2375
     11 N1          0.1542   -4.1136   -0.1403 N.2       1 <0>        -0.4453
     12 C9          1.2946   -4.8333   -0.2860 C.ar      1 <0>        -0.0987
     13 C10         2.6605   -4.5120   -0.3496 C.ar      1 <0>         0.5094
     14 N2          3.5373   -5.4990   -0.5023 N.ar      1 <0>        -0.5910
     15 C11         3.1426   -6.7559   -0.5930 C.ar      1 <0>         0.3643
     16 N3          1.8737   -7.1033   -0.5385 N.ar      1 <0>        -0.5564
     17 C12         0.9258   -6.1846   -0.3874 C.ar      1 <0>         0.3130
     18 N4         -0.4461   -6.2156   -0.2902 N.pl3     1 <0>        -0.4487
     19 C13        -1.2921   -7.4108   -0.3363 C.3       1 <0>         0.1082
     20 C14        -1.6871   -7.7004   -1.7857 C.3       1 <0>        -0.1318
     21 C15        -2.5706   -8.9486   -1.8339 C.3       1 <0>        -0.0059
     22 C16        -2.9507   -9.2273   -3.2284 C.1       1 <0>        -0.1930
     23 C17        -3.2539   -9.4495   -4.3406 C.1       1 <0>        -0.1989
     24 N5          3.0841   -3.1960   -0.2558 N.pl3     1 <0>        -0.8180
     25 Br1        -1.6875   -3.4460    2.9569 Br        1 <0>        -0.0260
     26 H1         -3.1242    2.4334   -2.0119 H         1 <0>         0.1061
     27 H2         -3.5513    2.0804   -0.3204 H         1 <0>         0.0599
     28 H3         -1.8455    2.0672   -0.8290 H         1 <0>         0.0595
     29 H4         -2.2519    1.0938    0.9828 H         1 <0>         0.1438
     30 H5         -1.7279   -0.5005    2.7818 H         1 <0>         0.1433
     31 H6         -3.0577   -2.1561   -1.6715 H         1 <0>         0.1507
     32 H7          3.8881   -7.5274   -0.7169 H         1 <0>         0.2056
     33 H8         -0.7421   -8.2610    0.0672 H         1 <0>         0.1064
     34 H9         -2.1900   -7.2435    0.2586 H         1 <0>         0.1009
     35 H10        -2.2371   -6.8502   -2.1892 H         1 <0>         0.0772
     36 H11        -0.7892   -7.8677   -2.3806 H         1 <0>         0.0777
     37 H12        -2.0207   -9.7988   -1.4304 H         1 <0>         0.0922
     38 H13        -3.4686   -8.7814   -1.2390 H         1 <0>         0.0922
     39 H14        -3.5250   -9.6483   -5.3353 H         1 <0>         0.2177
     40 H15         2.4345   -2.4842   -0.1448 H         1 <0>         0.4175
     41 H16         4.0301   -2.9866   -0.3011 H         1 <0>         0.4105
@<TRIPOS>BOND
     1    1    2 1
     2    1   26 1
     3    1   27 1
     4    1   28 1
     5    2    3 1
     6    3    8 ar
     7    3    4 ar
     8    4    5 ar
     9    4   29 1
    10    5    6 ar
    11    5   30 1
    12    6    7 ar
    13    6   25 1
    14    7    8 ar
    15    7    9 1
    16    8   31 1
    17    9   10 1
    18   10   18 1
    19   10   11 2
    20   11   12 1
    21   12   17 ar
    22   12   13 ar
    23   13   14 ar
    24   13   24 1
    25   14   15 ar
    26   15   16 ar
    27   15   32 1
    28   16   17 ar
    29   17   18 1
    30   18   19 1
    31   19   20 1
    32   19   33 1
    33   19   34 1
    34   20   21 1
    35   20   35 1
    36   20   36 1
    37   21   22 1
    38   21   37 1
    39   21   38 1
    40   22   23 3
    41   23   39 1
    42   24   40 1
    43   24   41 1
@<TRIPOS>MOLECULE
CHEMBL192062
   41    43     0     0     0
SMALL
USER_CHARGES

@<TRIPOS>ATOM
      1 C1         -2.8743    1.8404   -1.1325 C.3       1 <0>         0.0236
      2 O1         -2.9790    0.4509   -1.4493 O.3       1 <0>        -0.3101
      3 C2         -2.6863   -0.4317   -0.4580 C.ar      1 <0>         0.1255
      4 C3         -2.3117    0.0315    0.7956 C.ar      1 <0>        -0.1610
      5 C4         -2.0142   -0.8642    1.8052 C.ar      1 <0>        -0.0779
      6 C5         -2.0885   -2.2242    1.5700 C.ar      1 <0>        -0.0123
      7 C6         -2.4632   -2.6936    0.3160 C.ar      1 <0>        -0.0969
      8 C7         -2.7674   -1.7943   -0.6971 C.ar      1 <0>        -0.0746
      9 S1         -2.5578   -4.4271    0.0149 S.3       1 <0>         0.1276
     10 C8         -0.8751   -4.9241   -0.1470 C.2       1 <0>         0.2358
     11 N1          0.1545   -4.1135   -0.1412 N.2       1 <0>        -0.4465
     12 C9          1.2949   -4.8331   -0.2869 C.ar      1 <0>        -0.0993
     13 C10         2.6608   -4.5115   -0.3505 C.ar      1 <0>         0.5092
     14 N2          3.5377   -5.4984   -0.5037 N.ar      1 <0>        -0.5909
     15 C11         3.1431   -6.7553   -0.5949 C.ar      1 <0>         0.3644
     16 N3          1.8742   -7.1028   -0.5404 N.ar      1 <0>        -0.5564
     17 C12         0.9263   -6.1843   -0.3887 C.ar      1 <0>         0.3127
     18 N4         -0.4457   -6.2155   -0.2918 N.pl3     1 <0>        -0.4496
     19 C13        -1.2915   -7.4107   -0.3385 C.3       1 <0>         0.1083
     20 C14        -1.6862   -7.6999   -1.7882 C.3       1 <0>        -0.1318
     21 C15        -2.5696   -8.9482   -1.8369 C.3       1 <0>        -0.0058
     22 C16        -2.9493   -9.2264   -3.2316 C.1       1 <0>        -0.1931
     23 C17        -3.2522   -9.4483   -4.3440 C.1       1 <0>        -0.1988
     24 N5          3.0843   -3.1956   -0.2562 N.pl3     1 <0>        -0.8180
     25 Cl1        -1.7135   -3.3464    2.8403 Cl        1 <0>        -0.0456
     26 H1         -3.1344    2.4336   -2.0093 H         1 <0>         0.1057
     27 H2         -3.5565    2.0795   -0.3167 H         1 <0>         0.0594
     28 H3         -1.8522    2.0681   -0.8300 H         1 <0>         0.0590
     29 H4         -2.2524    1.0936    0.9823 H         1 <0>         0.1441
     30 H5         -1.7226   -0.5009    2.7796 H         1 <0>         0.1441
     31 H6         -3.0630   -2.1560   -1.6708 H         1 <0>         0.1511
     32 H7          3.8887   -7.5267   -0.7191 H         1 <0>         0.2058
     33 H8         -0.7416   -8.2610    0.0648 H         1 <0>         0.1063
     34 H9         -2.1896   -7.2437    0.2561 H         1 <0>         0.1008
     35 H10        -2.2361   -6.8496   -2.1915 H         1 <0>         0.0773
     36 H11        -0.7881   -7.8669   -2.3828 H         1 <0>         0.0776
     37 H12        -2.0197   -9.7984   -1.4336 H         1 <0>         0.0922
     38 H13        -3.4677   -8.7812   -1.2423 H         1 <0>         0.0922
     39 H14        -3.5230   -9.6467   -5.3389 H         1 <0>         0.2177
     40 H15         2.4347   -2.4839   -0.1449 H         1 <0>         0.4175
     41 H16         4.0303   -2.9861   -0.3015 H         1 <0>         0.4106
@<TRIPOS>BOND
     1    1    2 1
     2    1   26 1
     3    1   27 1
     4    1   28 1
     5    2    3 1
     6    3    8 ar
     7    3    4 ar
     8    4    5 ar
     9    4   29 1
    10    5    6 ar
    11    5   30 1
    12    6    7 ar
    13    6   25 1
    14    7    8 ar
    15    7    9 1
    16    8   31 1
    17    9   10 1
    18   10   18 1
    19   10   11 2
    20   11   12 1
    21   12   17 ar
    22   12   13 ar
    23   13   14 ar
    24   13   24 1
    25   14   15 ar
    26   15   16 ar
    27   15   32 1
    28   16   17 ar
    29   17   18 1
    30   18   19 1
    31   19   20 1
    32   19   33 1
    33   19   34 1
    34   20   21 1
    35   20   35 1
    36   20   36 1
    37   21   22 1
    38   21   37 1
    39   21   38 1
    40   22   23 3
    41   23   39 1
    42   24   40 1
    43   24   41 1
@<TRIPOS>MOLECULE
CHEMBL379345
   37    40     0     0     0
SMALL
USER_CHARGES

@<TRIPOS>ATOM
      1 C1         -0.0187    1.5258    0.0104 C.3       1 <0>        -0.1491
      2 C2          0.0021   -0.0041    0.0020 C.3       1 <0>        -0.1416
      3 C3          0.7182   -0.4975   -1.2568 C.3       1 <0>         0.1051
      4 N1          0.7381   -1.9623   -1.2648 N.pl3     1 <0>        -0.4487
      5 C4          1.7115   -2.7665   -0.7194 C.ar      1 <0>         0.3195
      6 C5          1.3090   -4.0896   -0.9659 C.ar      1 <0>        -0.1085
      7 C6          2.1341   -5.1299   -0.5085 C.ar      1 <0>         0.5162
      8 N2          3.2540   -4.8146    0.1343 N.ar      1 <0>        -0.5925
      9 C7          3.5911   -3.5552    0.3426 C.ar      1 <0>         0.3708
     10 N3          2.8486   -2.5481   -0.0683 N.ar      1 <0>        -0.5591
     11 N4          1.7885   -6.4545   -0.7220 N.pl3     1 <0>        -0.8146
     12 N5          0.1319   -4.0345   -1.6371 N.2       1 <0>        -0.3980
     13 C8         -0.2114   -2.7824   -1.8112 C.2       1 <0>         0.1994
     14 S1         -1.6731   -2.2364   -2.6297 S.3       1 <0>         0.2767
     15 C9         -2.4794   -3.7297   -3.1037 C.2       1 <0>         0.0838
     16 N6         -2.1013   -4.9713   -2.8990 N.2       1 <0>        -0.4426
     17 C10        -2.8264   -6.0292   -3.3219 C.ar      1 <0>         0.0925
     18 C11        -2.5347   -7.4048   -3.1682 C.ar      1 <0>        -0.0479
     19 C12        -3.3838   -8.3605   -3.6618 C.ar      1 <0>        -0.1008
     20 C13        -4.5531   -8.0186   -4.3256 C.ar      1 <0>        -0.0792
     21 C14        -4.8705   -6.6820   -4.4938 C.ar      1 <0>         0.0126
     22 C15        -4.0249   -5.7177   -4.0026 C.ar      1 <0>        -0.1475
     23 S2         -4.0236   -3.9412   -3.9783 S.3       1 <0>         0.0898
     24 Cl1        -6.3273   -6.2273   -5.3212 Cl        1 <0>        -0.0494
     25 H1          1.0039    1.9031    0.0027 H         1 <0>         0.0611
     26 H2         -0.5459    1.8868   -0.8726 H         1 <0>         0.0605
     27 H3         -0.5289    1.8773    0.9072 H         1 <0>         0.0653
     28 H4          0.5293   -0.3651    0.8851 H         1 <0>         0.0740
     29 H5         -1.0205   -0.3814    0.0098 H         1 <0>         0.0715
     30 H6          0.1910   -0.1364   -2.1398 H         1 <0>         0.0964
     31 H7          1.7408   -0.1202   -1.2645 H         1 <0>         0.1066
     32 H8          4.5097   -3.3430    0.8694 H         1 <0>         0.2073
     33 H9          0.9685   -6.6720   -1.1922 H         1 <0>         0.4195
     34 H10         2.3667   -7.1643   -0.4013 H         1 <0>         0.4112
     35 H11        -1.6324   -7.7053   -2.6564 H         1 <0>         0.1407
     36 H12        -3.1369   -9.4038   -3.5315 H         1 <0>         0.1472
     37 H13        -5.2086   -8.7873   -4.7074 H         1 <0>         0.1516
@<TRIPOS>BOND
     1    1    2 1
     2    1   25 1
     3    1   26 1
     4    1   27 1
     5    2    3 1
     6    2   28 1
     7    2   29 1
     8    3    4 1
     9    3   30 1
    10    3   31 1
    11    4   13 1
    12    4    5 1
    13    5   10 ar
    14    5    6 ar
    15    6    7 ar
    16    6   12 1
    17    7    8 ar
    18    7   11 1
    19    8    9 ar
    20    9   10 ar
    21    9   32 1
    22   11   33 1
    23   11   34 1
    24   12   13 2
    25   13   14 1
    26   14   15 1
    27   15   23 1
    28   15   16 2
    29   16   17 1
    30   17   22 ar
    31   17   18 ar
    32   18   19 ar
    33   18   35 1
    34   19   20 ar
    35   19   36 1
    36   20   21 ar
    37   20   37 1
    38   21   22 ar
    39   21   24 1
    40   22   23 1
@<TRIPOS>MOLECULE
CHEMBL438613
   34    37     0     0     0
SMALL
USER_CHARGES

@<TRIPOS>ATOM
      1 C1         -0.0187    1.5258    0.0104 C.3       1 <0>        -0.1720
      2 C2          0.0021   -0.0041    0.0020 C.3       1 <0>         0.1018
      3 N1          0.6878   -0.4765   -1.2033 N.pl3     1 <0>        -0.4489
      4 C3          0.1046   -0.7440   -2.4199 C.ar      1 <0>         0.3193
      5 C4          1.1429   -1.1663   -3.2667 C.ar      1 <0>        -0.1087
      6 C5          0.8214   -1.5089   -4.5902 C.ar      1 <0>         0.5161
      7 N2         -0.4466   -1.4176   -4.9783 N.ar      1 <0>        -0.5925
      8 C6         -1.3889   -1.0151   -4.1457 C.ar      1 <0>         0.3708
      9 N3         -1.1338   -0.6842   -2.8968 N.ar      1 <0>        -0.5594
     10 N4          1.8035   -1.9319   -5.4712 N.pl3     1 <0>        -0.8146
     11 N5          2.2897   -1.1383   -2.5434 N.2       1 <0>        -0.3983
     12 C7          2.0273   -0.7273   -1.3276 C.2       1 <0>         0.1994
     13 S1          3.2187   -0.5313   -0.0444 S.3       1 <0>         0.2770
     14 C8          4.7398   -1.0007   -0.7997 C.2       1 <0>         0.0838
     15 N6          4.9594   -1.4000   -2.0321 N.2       1 <0>        -0.4426
     16 C9          6.1902   -1.7306   -2.4789 C.ar      1 <0>         0.0925
     17 C10         6.5604   -2.1722   -3.7708 C.ar      1 <0>        -0.0479
     18 C11         7.8659   -2.4699   -4.0621 C.ar      1 <0>        -0.1008
     19 C12         8.8670   -2.3501   -3.1092 C.ar      1 <0>        -0.0792
     20 C13         8.5411   -1.9202   -1.8346 C.ar      1 <0>         0.0126
     21 C14         7.2351   -1.6202   -1.5340 C.ar      1 <0>        -0.1474
     22 S2          6.3781   -1.0474   -0.0869 S.3       1 <0>         0.0897
     23 Cl1         9.7749   -1.7624   -0.6236 Cl        1 <0>        -0.0494
     24 H1          1.0039    1.9031    0.0027 H         1 <0>         0.0652
     25 H2         -0.5459    1.8868   -0.8726 H         1 <0>         0.0674
     26 H3         -0.5289    1.8773    0.9072 H         1 <0>         0.0852
     27 H4          0.5293   -0.3651    0.8851 H         1 <0>         0.0966
     28 H5         -1.0205   -0.3814    0.0098 H         1 <0>         0.1066
     29 H6         -2.4067   -0.9551   -4.5020 H         1 <0>         0.2074
     30 H7          2.7254   -1.9941   -5.1763 H         1 <0>         0.4195
     31 H8          1.5690   -2.1657   -6.3829 H         1 <0>         0.4112
     32 H9          5.8055   -2.2764   -4.5361 H         1 <0>         0.1407
     33 H10         8.1213   -2.8058   -5.0563 H         1 <0>         0.1472
     34 H11         9.8899   -2.5901   -3.3592 H         1 <0>         0.1516
@<TRIPOS>BOND
     1    1    2 1
     2    1   24 1
     3    1   25 1
     4    1   26 1
     5    2    3 1
     6    2   27 1
     7    2   28 1
     8    3   12 1
     9    3    4 1
    10    4    9 ar
    11    4    5 ar
    12    5    6 ar
    13    5   11 1
    14    6    7 ar
    15    6   10 1
    16    7    8 ar
    17    8    9 ar
    18    8   29 1
    19   10   30 1
    20   10   31 1
    21   11   12 2
    22   12   13 1
    23   13   14 1
    24   14   22 1
    25   14   15 2
    26   15   16 1
    27   16   21 ar
    28   16   17 ar
    29   17   18 ar
    30   17   32 1
    31   18   19 ar
    32   18   33 1
    33   19   20 ar
    34   19   34 1
    35   20   21 ar
    36   20   23 1
    37   21   22 1
@<TRIPOS>MOLECULE
CHEMBL200102
   50    53     0     0     0
SMALL
USER_CHARGES

@<TRIPOS>ATOM
      1 C1          0.1173    1.7811    0.1278 C.3       1 <0>        -0.1863
      2 C2         -0.0169    0.2583    0.0650 C.3       1 <0>         0.0242
      3 C3         -1.4978   -0.1250    0.0984 C.3       1 <0>        -0.1852
      4 N1          0.5889   -0.2358   -1.1787 N.4       1 <0>        -0.5075
      5 C4          2.0341    0.0264   -1.1573 C.3       1 <0>        -0.0080
      6 C5          2.6651   -0.4882   -2.4527 C.3       1 <0>        -0.1720
      7 C6          4.1703   -0.2152   -2.4303 C.3       1 <0>         0.1176
      8 N2          4.7745   -0.7079   -3.6707 N.pl3     1 <0>        -0.4559
      9 C7          5.2773   -1.9702   -3.8863 C.ar      1 <0>         0.3159
     10 C8          5.7476   -1.9830   -5.2099 C.ar      1 <0>        -0.1002
     11 C9          6.3208   -3.1682   -5.6985 C.ar      1 <0>         0.5146
     12 N3          6.3913   -4.2193   -4.8878 N.ar      1 <0>        -0.5864
     13 C10         5.9354   -4.1596   -3.6502 C.ar      1 <0>         0.3747
     14 N4          5.3904   -3.0700   -3.1501 N.ar      1 <0>        -0.5664
     15 N5          6.8016   -3.2405   -6.9960 N.pl3     1 <0>        -0.8119
     16 N6          5.5156   -0.7531   -5.7325 N.2       1 <0>        -0.4341
     17 C11         4.9371    0.0011   -4.8302 C.2       1 <0>         0.2277
     18 S1          4.4461    1.6759   -5.0721 S.3       1 <0>         0.1218
     19 C12         5.0464    2.0679   -6.6816 C.ar      1 <0>        -0.1100
     20 C13         4.1682    2.1229   -7.7562 C.ar      1 <0>        -0.0331
     21 C14         4.6406    2.4309   -9.0206 C.ar      1 <0>         0.0434
     22 C15         5.9969    2.6852   -9.2127 C.ar      1 <0>         0.0843
     23 C16         6.8700    2.6293   -8.1387 C.ar      1 <0>        -0.0799
     24 C17         6.3971    2.3276   -6.8751 C.ar      1 <0>        -0.0348
     25 I1          7.7201    2.2539   -5.2524 I         1 <0>         0.0093
     26 O1          6.2056    2.9614  -10.5342 O.3       1 <0>        -0.2957
     27 C18         5.0364    2.4733  -11.2181 C.3       1 <0>         0.2111
     28 O2          4.0006    2.5478  -10.2208 O.3       1 <0>        -0.2989
     29 H1          1.1723    2.0541    0.1041 H         1 <0>         0.0821
     30 H2         -0.3926    2.2263   -0.7265 H         1 <0>         0.0827
     31 H3         -0.3322    2.1477    1.0507 H         1 <0>         0.1069
     32 H4          0.4929   -0.1870    0.9194 H         1 <0>         0.1402
     33 H5         -2.0076    0.3202   -0.7560 H         1 <0>         0.0818
     34 H6         -1.5934   -1.2099    0.0536 H         1 <0>         0.0819
     35 H7         -1.9473    0.2416    1.0212 H         1 <0>         0.1077
     36 H8          0.4283   -1.2287   -1.2598 H         1 <0>         0.4295
     37 H9          2.2076    1.0989   -1.0697 H         1 <0>         0.1391
     38 H10         2.4836   -0.4850   -0.3061 H         1 <0>         0.1385
     39 H11         2.4916   -1.5608   -2.5402 H         1 <0>         0.0987
     40 H12         2.2156    0.0232   -3.3039 H         1 <0>         0.0973
     41 H13         4.3438    0.8574   -2.3428 H         1 <0>         0.1077
     42 H14         4.6198   -0.7266   -1.5791 H         1 <0>         0.1132
     43 H15         6.0119   -5.0369   -3.0249 H         1 <0>         0.2084
     44 H16         6.7443   -2.4668   -7.5783 H         1 <0>         0.4194
     45 H17         7.1955   -4.0648   -7.3221 H         1 <0>         0.4148
     46 H18         3.1172    1.9250   -7.6056 H         1 <0>         0.1535
     47 H19         7.9213    2.8265   -8.2879 H         1 <0>         0.1525
     48 H20         4.7959    3.1113  -12.0685 H         1 <0>         0.1435
     49 H21         5.1839    1.4427  -11.5408 H         1 <0>         0.0950
     50 H22         0.1728    0.2376   -1.9667 H         1 <0>         0.4270
@<TRIPOS>BOND
     1    1    2 1
     2    1   29 1
     3    1   30 1
     4    1   31 1
     5    2    3 1
     6    2    4 1
     7    2   32 1
     8    3   33 1
     9    3   34 1
    10    3   35 1
    11    4    5 1
    12    4   36 1
    13    4   50 1
    14    5    6 1
    15    5   37 1
    16    5   38 1
    17    6    7 1
    18    6   39 1
    19    6   40 1
    20    7    8 1
    21    7   41 1
    22    7   42 1
    23    8   17 1
    24    8    9 1
    25    9   14 ar
    26    9   10 ar
    27   10   11 ar
    28   10   16 1
    29   11   12 ar
    30   11   15 1
    31   12   13 ar
    32   13   14 ar
    33   13   43 1
    34   15   44 1
    35   15   45 1
    36   16   17 2
    37   17   18 1
    38   18   19 1
    39   19   24 ar
    40   19   20 ar
    41   20   21 ar
    42   20   46 1
    43   21   28 1
    44   21   22 ar
    45   22   23 ar
    46   22   26 1
    47   23   24 ar
    48   23   47 1
    49   24   25 1
    50   26   27 1
    51   27   28 1
    52   27   48 1
    53   27   49 1
@<TRIPOS>MOLECULE
CHEMBL371915
   44    47     0     0     0
SMALL
USER_CHARGES

@<TRIPOS>ATOM
      1 C1         -0.0164    1.3570    0.0095 C.ar      1 <0>        -0.1191
      2 C2          1.1684    2.0900    0.0021 C.ar      1 <0>        -0.1233
      3 C3          2.3784    1.4649   -0.0133 C.ar      1 <0>        -0.0912
      4 C4          2.4363    0.0635   -0.0213 C.ar      1 <0>        -0.0281
      5 C5          1.2327   -0.6833   -0.0134 C.ar      1 <0>        -0.0583
      6 C6          0.0021   -0.0041    0.0020 C.ar      1 <0>        -0.1104
      7 C7          1.2868   -2.0881   -0.0205 C.ar      1 <0>        -0.1048
      8 C8          2.4891   -2.7259   -0.0345 C.ar      1 <0>        -0.1311
      9 C9          3.6854   -2.0079   -0.0421 C.ar      1 <0>         0.1169
     10 C10         3.6754   -0.6190   -0.0368 C.ar      1 <0>        -0.0267
     11 C11         4.9470    0.1387   -0.0459 C.ar      1 <0>        -0.0305
     12 C12         5.5631    0.4861    1.1556 C.ar      1 <0>        -0.1404
     13 C13         6.7538    1.1951    1.1402 C.ar      1 <0>         0.2805
     14 C14         7.3325    1.5595   -0.0698 C.ar      1 <0>        -0.2462
     15 C15         6.7251    1.2176   -1.2630 C.ar      1 <0>        -0.0825
     16 C16         5.5383    0.5038   -1.2602 C.ar      1 <0>         0.0005
     17 O1          4.9458    0.1633   -2.4355 O.3       1 <0>        -0.4967
     18 N1          7.3741    1.5450    2.3449 N.2       1 <0>        -1.0743
     19 S1          8.7969    2.3922    2.3280 S.o2      1 <0>         2.5974
     20 O2          9.7740    1.5336    1.7559 O.2       1 <0>        -1.0245
     21 O3          8.5002    3.6736    1.7902 O.2       1 <0>        -1.0096
     22 C17         9.2711    2.6476    4.0056 C.ar      1 <0>        -0.6033
     23 C18        10.4278    2.0684    4.4927 C.ar      1 <0>        -0.0104
     24 C19        10.8001    2.2689    5.8098 C.ar      1 <0>        -0.0587
     25 C20        10.0145    3.0492    6.6397 C.ar      1 <0>        -0.0621
     26 C21         8.8582    3.6282    6.1528 C.ar      1 <0>        -0.1263
     27 C22         8.4888    3.4323    4.8337 C.ar      1 <0>         0.0617
     28 Cl1         7.0399    4.1656    4.2200 Cl        1 <0>        -0.0215
     29 Cl2        12.2525    1.5410    6.4217 Cl        1 <0>        -0.0652
     30 O4          4.8699   -2.6728   -0.0556 O.3       1 <0>        -0.4882
     31 H1         -0.9632    1.8762    0.0259 H         1 <0>         0.1185
     32 H2          1.1268    3.1692    0.0083 H         1 <0>         0.1208
     33 H3          3.2891    2.0456   -0.0196 H         1 <0>         0.1317
     34 H4         -0.9242   -0.5594    0.0082 H         1 <0>         0.1229
     35 H5          0.3723   -2.6626   -0.0145 H         1 <0>         0.1264
     36 H6          2.5176   -3.8055   -0.0395 H         1 <0>         0.1268
     37 H7          5.1133    0.2038    2.0960 H         1 <0>         0.1171
     38 H8          8.2603    2.1122   -0.0775 H         1 <0>         0.1013
     39 H9          7.1792    1.5041   -2.2001 H         1 <0>         0.1109
     40 H10         4.3222    0.8236   -2.7674 H         1 <0>         0.3625
     41 H11        11.0407    1.4591    3.8451 H         1 <0>         0.1568
     42 H12        10.3050    3.2054    7.6682 H         1 <0>         0.1448
     43 H13         8.2449    4.2369    6.8007 H         1 <0>         0.1472
     44 H14         5.2050   -2.8615   -0.9429 H         1 <0>         0.3889
@<TRIPOS>BOND
     1    1    6 ar
     2    1    2 ar
     3    1   31 1
     4    2    3 ar
     5    2   32 1
     6    3    4 ar
     7    3   33 1
     8    4   10 ar
     9    4    5 ar
    10    5    6 ar
    11    5    7 ar
    12    6   34 1
    13    7    8 ar
    14    7   35 1
    15    8    9 ar
    16    8   36 1
    17    9   10 ar
    18    9   30 1
    19   10   11 1
    20   11   16 ar
    21   11   12 ar
    22   12   13 ar
    23   12   37 1
    24   13   14 ar
    25   13   18 1
    26   14   15 ar
    27   14   38 1
    28   15   16 ar
    29   15   39 1
    30   16   17 1
    31   17   40 1
    32   18   19 1
    33   19   20 2
    34   19   21 2
    35   19   22 1
    36   22   27 ar
    37   22   23 ar
    38   23   24 ar
    39   23   41 1
    40   24   25 ar
    41   24   29 1
    42   25   26 ar
    43   25   42 1
    44   26   27 ar
    45   26   43 1
    46   27   28 1
    47   30   44 1
@<TRIPOS>MOLECULE
CHEMBL371915__1
   45    48     0     0     0
SMALL
USER_CHARGES

@<TRIPOS>ATOM
      1 C1          0.2695    1.8192   -0.8110 C.ar      1 <0>        -0.1191
      2 C2          1.4913    2.4795   -0.6989 C.ar      1 <0>        -0.1061
      3 C3          2.6575    1.7826   -0.6024 C.ar      1 <0>        -0.1125
      4 C4          2.6319    0.3803   -0.6153 C.ar      1 <0>        -0.0217
      5 C5          1.3906   -0.2926   -0.7287 C.ar      1 <0>        -0.0610
      6 C6          0.2071    0.4595   -0.8267 C.ar      1 <0>        -0.0988
      7 C7          1.3610   -1.6981   -0.7410 C.ar      1 <0>        -0.0826
      8 C8          2.5187   -2.4072   -0.6440 C.ar      1 <0>        -0.1394
      9 C9          3.7510   -1.7627   -0.5311 C.ar      1 <0>         0.1359
     10 C10         3.8236   -0.3757   -0.5166 C.ar      1 <0>        -0.0661
     11 C11         5.1333    0.3039   -0.3976 C.ar      1 <0>        -0.0438
     12 C12         5.6502    0.6117    0.8601 C.ar      1 <0>        -0.0883
     13 C13         6.8771    1.2476    0.9646 C.ar      1 <0>         0.1332
     14 C14         7.5907    1.5783   -0.1814 C.ar      1 <0>        -0.1297
     15 C15         7.0819    1.2756   -1.4300 C.ar      1 <0>        -0.1191
     16 C16         5.8597    0.6347   -1.5466 C.ar      1 <0>         0.1145
     17 O1          5.3640    0.3324   -2.7760 O.3       1 <0>        -0.4914
     18 N1          7.3982    1.5575    2.2259 N.pl3     1 <0>        -1.0500
     19 S1          8.9816    1.2196    2.5735 S.o2      1 <0>         2.6901
     20 O2          9.7587    1.8051    1.5378 O.2       1 <0>        -0.9393
     21 O3          9.1739    1.5404    3.9444 O.2       1 <0>        -0.9287
     22 C17         9.1854   -0.5248    2.4312 C.ar      1 <0>        -0.6629
     23 C18        10.0220   -1.0461    1.4623 C.ar      1 <0>         0.0027
     24 C19        10.1819   -2.4156    1.3505 C.ar      1 <0>        -0.0524
     25 C20         9.5044   -3.2636    2.2088 C.ar      1 <0>        -0.0386
     26 C21         8.6680   -2.7425    3.1774 C.ar      1 <0>        -0.1117
     27 C22         8.5125   -1.3723    3.2928 C.ar      1 <0>         0.0587
     28 Cl1         7.4673   -0.7173    4.5144 Cl        1 <0>        -0.0311
     29 Cl2        11.2322   -3.0704    0.1332 Cl        1 <0>        -0.0433
     30 O4          4.8893   -2.4978   -0.4356 O.3       1 <0>        -0.4927
     31 H1         -0.6417    2.3946   -0.8819 H         1 <0>         0.1251
     32 H2          1.5139    3.5592   -0.6887 H         1 <0>         0.1248
     33 H3          3.5976    2.3073   -0.5168 H         1 <0>         0.1250
     34 H4         -0.7470   -0.0389   -0.9138 H         1 <0>         0.1294
     35 H5          0.4174   -2.2164   -0.8273 H         1 <0>         0.1334
     36 H6          2.4828   -3.4866   -0.6542 H         1 <0>         0.1327
     37 H7          5.0957    0.3554    1.7507 H         1 <0>         0.1341
     38 H8          8.5463    2.0742   -0.0957 H         1 <0>         0.1610
     39 H9          7.6406    1.5358   -2.3169 H         1 <0>         0.1411
     40 H10         4.8161    1.0297   -3.1615 H         1 <0>         0.3915
     41 H11         6.8319    1.9704    2.8965 H         1 <0>         0.4304
     42 H12        10.5505   -0.3843    0.7922 H         1 <0>         0.1637
     43 H13         9.6289   -4.3329    2.1213 H         1 <0>         0.1544
     44 H14         8.1389   -3.4044    3.8470 H         1 <0>         0.1555
     45 H15         5.2965   -2.7049   -1.2879 H         1 <0>         0.3930
@<TRIPOS>BOND
     1    1    6 ar
     2    1    2 ar
     3    1   31 1
     4    2    3 ar
     5    2   32 1
     6    3    4 ar
     7    3   33 1
     8    4   10 ar
     9    4    5 ar
    10    5    6 ar
    11    5    7 ar
    12    6   34 1
    13    7    8 ar
    14    7   35 1
    15    8    9 ar
    16    8   36 1
    17    9   10 ar
    18    9   30 1
    19   10   11 1
    20   11   16 ar
    21   11   12 ar
    22   12   13 ar
    23   12   37 1
    24   13   14 ar
    25   13   18 1
    26   14   15 ar
    27   14   38 1
    28   15   16 ar
    29   15   39 1
    30   16   17 1
    31   17   40 1
    32   18   19 1
    33   18   41 1
    34   19   20 2
    35   19   21 2
    36   19   22 1
    37   22   27 ar
    38   22   23 ar
    39   23   24 ar
    40   23   42 1
    41   24   25 ar
    42   24   29 1
    43   25   26 ar
    44   25   43 1
    45   26   27 ar
    46   26   44 1
    47   27   28 1
    48   30   45 1
@<TRIPOS>MOLECULE
CHEMBL448474
   40    43     0     0     0
SMALL
USER_CHARGES

@<TRIPOS>ATOM
      1 C1         -0.0184    1.5028    0.0103 C.3       1 <0>        -0.1456
      2 C2          0.0021   -0.0041    0.0020 C.2       1 <0>         0.4619
      3 O1          1.0565   -0.5939   -0.0112 O.2       1 <0>        -0.5057
      4 O2         -1.1511   -0.6910    0.0093 O.3       1 <0>        -0.3487
      5 C3         -1.0570   -2.1168    0.0008 C.3       1 <0>         0.0501
      6 C4         -2.4627   -2.7208    0.0110 C.3       1 <0>         0.1114
      7 N1         -2.3662   -4.1826    0.0022 N.pl3     1 <0>        -0.4496
      8 C5         -2.3176   -4.9888   -1.1112 C.ar      1 <0>         0.3219
      9 C6         -2.2277   -6.3074   -0.6353 C.ar      1 <0>        -0.1070
     10 C7         -2.1630   -7.3487   -1.5755 C.ar      1 <0>         0.5178
     11 N2         -2.1899   -7.0384   -2.8677 N.ar      1 <0>        -0.5904
     12 C8         -2.2753   -5.7831   -3.2675 C.ar      1 <0>         0.3746
     13 N3         -2.3384   -4.7753   -2.4221 N.ar      1 <0>        -0.5597
     14 N4         -2.0729   -8.6691   -1.1654 N.pl3     1 <0>        -0.8131
     15 N5         -2.2255   -6.2479    0.7195 N.2       1 <0>        -0.3921
     16 C9         -2.3018   -4.9968    1.1001 C.2       1 <0>         0.2011
     17 S1         -2.3231   -4.4458    2.7736 S.3       1 <0>         0.2767
     18 C10        -2.2154   -5.9324    3.7133 C.2       1 <0>         0.0826
     19 N6         -2.1309   -7.1724    3.2873 N.2       1 <0>        -0.4418
     20 C11        -2.0531   -8.2250    4.1299 C.ar      1 <0>         0.0919
     21 C12        -1.9592   -9.5984    3.8046 C.ar      1 <0>        -0.0473
     22 C13        -1.8888  -10.5485    4.7896 C.ar      1 <0>        -0.1008
     23 C14        -1.9063  -10.2029    6.1331 C.ar      1 <0>        -0.0783
     24 C15        -1.9969   -8.8682    6.4880 C.ar      1 <0>         0.0124
     25 C16        -2.0683   -7.9096    5.5072 C.ar      1 <0>        -0.1469
     26 S2         -2.1854   -6.1368    5.4886 S.3       1 <0>         0.0927
     27 Cl1        -2.0212   -8.4090    8.1620 Cl        1 <0>        -0.0489
     28 H1          1.0042    1.8801    0.0026 H         1 <0>         0.1045
     29 H2         -0.5455    1.8639   -0.8728 H         1 <0>         0.1033
     30 H3         -0.5286    1.8543    0.9071 H         1 <0>         0.1035
     31 H4         -0.5289   -2.4407   -0.8960 H         1 <0>         0.0802
     32 H5         -0.5119   -2.4503    0.8838 H         1 <0>         0.0775
     33 H6         -2.9908   -2.3969    0.9078 H         1 <0>         0.1101
     34 H7         -3.0078   -2.3874   -0.8721 H         1 <0>         0.1205
     35 H8         -2.2943   -5.5749   -4.3271 H         1 <0>         0.2090
     36 H9         -2.0537   -8.8829   -0.2195 H         1 <0>         0.4201
     37 H10        -2.0289   -9.3796   -1.8243 H         1 <0>         0.4120
     38 H11        -1.9432   -9.9017    2.7682 H         1 <0>         0.1409
     39 H12        -1.8184  -11.5903    4.5137 H         1 <0>         0.1474
     40 H13        -1.8501  -10.9673    6.8939 H         1 <0>         0.1518
@<TRIPOS>BOND
     1    1    2 1
     2    1   28 1
     3    1   29 1
     4    1   30 1
     5    2    3 2
     6    2    4 1
     7    4    5 1
     8    5    6 1
     9    5   31 1
    10    5   32 1
    11    6    7 1
    12    6   33 1
    13    6   34 1
    14    7   16 1
    15    7    8 1
    16    8   13 ar
    17    8    9 ar
    18    9   10 ar
    19    9   15 1
    20   10   11 ar
    21   10   14 1
    22   11   12 ar
    23   12   13 ar
    24   12   35 1
    25   14   36 1
    26   14   37 1
    27   15   16 2
    28   16   17 1
    29   17   18 1
    30   18   26 1
    31   18   19 2
    32   19   20 1
    33   20   25 ar
    34   20   21 ar
    35   21   22 ar
    36   21   38 1
    37   22   23 ar
    38   22   39 1
    39   23   24 ar
    40   23   40 1
    41   24   25 ar
    42   24   27 1
    43   25   26 1
@<TRIPOS>MOLECULE
CHEMBL438068
   43    46     0     0     0
SMALL
USER_CHARGES

@<TRIPOS>ATOM
      1 C1         -0.0187    1.5258    0.0104 C.3       1 <0>        -0.1540
      2 C2          0.0021   -0.0041    0.0020 C.3       1 <0>        -0.1243
      3 C3          0.7182   -0.4975   -1.2568 C.3       1 <0>        -0.1159
      4 C4          0.7390   -2.0273   -1.2652 C.3       1 <0>        -0.1376
      5 C5          1.4551   -2.5207   -2.5240 C.3       1 <0>         0.1057
      6 N1          1.4750   -3.9856   -2.5321 N.pl3     1 <0>        -0.4482
      7 C6          2.4484   -4.7897   -1.9866 C.ar      1 <0>         0.3198
      8 C7          2.0459   -6.1128   -2.2331 C.ar      1 <0>        -0.1086
      9 C8          2.8710   -7.1531   -1.7757 C.ar      1 <0>         0.5161
     10 N2          3.9909   -6.8378   -1.1329 N.ar      1 <0>        -0.5925
     11 C9          4.3280   -5.5784   -0.9246 C.ar      1 <0>         0.3707
     12 N3          3.5855   -4.5713   -1.3355 N.ar      1 <0>        -0.5588
     13 N4          2.5254   -8.4777   -1.9892 N.pl3     1 <0>        -0.8147
     14 N5          0.8688   -6.0577   -2.9043 N.2       1 <0>        -0.3981
     15 C10         0.5255   -4.8057   -3.0784 C.2       1 <0>         0.1997
     16 S1         -0.9362   -4.2596   -3.8970 S.3       1 <0>         0.2766
     17 C11        -1.7425   -5.7529   -4.3709 C.2       1 <0>         0.0839
     18 N6         -1.3644   -6.9945   -4.1663 N.2       1 <0>        -0.4425
     19 C12        -2.0895   -8.0525   -4.5891 C.ar      1 <0>         0.0925
     20 C13        -1.7978   -9.4281   -4.4354 C.ar      1 <0>        -0.0479
     21 C14        -2.6469  -10.3838   -4.9291 C.ar      1 <0>        -0.1008
     22 C15        -3.8162  -10.0418   -5.5928 C.ar      1 <0>        -0.0792
     23 C16        -4.1336   -8.7052   -5.7610 C.ar      1 <0>         0.0126
     24 C17        -3.2880   -7.7410   -5.2698 C.ar      1 <0>        -0.1474
     25 S2         -3.2867   -5.9644   -5.2455 S.3       1 <0>         0.0895
     26 Cl1        -5.5904   -8.2506   -6.5884 Cl        1 <0>        -0.0494
     27 H1          1.0039    1.9031    0.0027 H         1 <0>         0.0547
     28 H2         -0.5459    1.8868   -0.8726 H         1 <0>         0.0549
     29 H3         -0.5289    1.8773    0.9072 H         1 <0>         0.0551
     30 H4          0.5293   -0.3651    0.8851 H         1 <0>         0.0622
     31 H5         -1.0205   -0.3814    0.0098 H         1 <0>         0.0628
     32 H6          0.1910   -0.1364   -2.1398 H         1 <0>         0.0679
     33 H7          1.7408   -0.1202   -1.2645 H         1 <0>         0.0685
     34 H8          1.2661   -2.3884   -0.3821 H         1 <0>         0.0747
     35 H9         -0.2836   -2.4046   -1.2575 H         1 <0>         0.0720
     36 H10         0.9279   -2.1597   -3.4071 H         1 <0>         0.0962
     37 H11         2.4777   -2.1435   -2.5317 H         1 <0>         0.1065
     38 H12         5.2466   -5.3662   -0.3979 H         1 <0>         0.2071
     39 H13         1.7054   -8.6953   -2.4594 H         1 <0>         0.4195
     40 H14         3.1036   -9.1876   -1.6686 H         1 <0>         0.4111
     41 H15        -0.8956   -9.7286   -3.9236 H         1 <0>         0.1407
     42 H16        -2.4000  -11.4270   -4.7987 H         1 <0>         0.1472
     43 H17        -4.4717  -10.8106   -5.9746 H         1 <0>         0.1516
@<TRIPOS>BOND
     1    1    2 1
     2    1   27 1
     3    1   28 1
     4    1   29 1
     5    2    3 1
     6    2   30 1
     7    2   31 1
     8    3    4 1
     9    3   32 1
    10    3   33 1
    11    4    5 1
    12    4   34 1
    13    4   35 1
    14    5    6 1
    15    5   36 1
    16    5   37 1
    17    6   15 1
    18    6    7 1
    19    7   12 ar
    20    7    8 ar
    21    8    9 ar
    22    8   14 1
    23    9   10 ar
    24    9   13 1
    25   10   11 ar
    26   11   12 ar
    27   11   38 1
    28   13   39 1
    29   13   40 1
    30   14   15 2
    31   15   16 1
    32   16   17 1
    33   17   25 1
    34   17   18 2
    35   18   19 1
    36   19   24 ar
    37   19   20 ar
    38   20   21 ar
    39   20   41 1
    40   21   22 ar
    41   21   42 1
    42   22   23 ar
    43   22   43 1
    44   23   24 ar
    45   23   26 1
    46   24   25 1
@<TRIPOS>MOLECULE
CHEMBL377782
   84    86     0     0     0
SMALL
USER_CHARGES

@<TRIPOS>ATOM
      1 C1          1.6592    3.0701    1.0384 C.3       1 <0>        -0.1497
      2 C2          1.3497    1.6081    1.3662 C.3       1 <0>        -0.0786
      3 H1          1.2880    1.0329    0.4424 H         1 <0>         0.0896
      4 C3          0.0170    1.5225    2.1115 C.3       1 <0>        -0.0668
      5 C4         -1.1093    1.9309    1.1969 C.ar      1 <0>        -0.1281
      6 C5         -2.1219    2.7537    1.6654 C.ar      1 <0>         0.2245
      7 C6         -3.1725    3.1259    0.8224 C.ar      1 <0>         0.0478
      8 C7         -3.2160    2.6711   -0.4795 C.ar      1 <0>        -0.0478
      9 C8         -2.2014    1.8379   -0.9586 C.ar      1 <0>        -0.0107
     10 C9         -1.1321    1.4880   -0.1149 C.ar      1 <0>         0.0668
     11 O1         -0.2886    0.7369   -0.8578 O.3       1 <0>        -0.2063
     12 C10        -0.8387    0.5763   -2.0810 C.2       1 <0>         0.2649
     13 N1         -1.9732    1.2268   -2.1501 N.2       1 <0>        -0.4515
     14 C11        -0.2224   -0.2044   -3.1566 C.2       1 <0>        -0.0534
     15 C12         1.0561   -0.5983   -3.0022 C.2       1 <0>        -0.1001
     16 C13         1.7603   -1.4100   -3.9948 C.2       1 <0>        -0.1202
     17 C14         3.0886   -1.5372   -3.8471 C.2       1 <0>        -0.1449
     18 C15         3.7373   -0.8170   -2.6939 C.3       1 <0>         0.1213
     19 H2          3.0927   -0.8913   -1.8181 H         1 <0>         0.0960
     20 C16         5.1017   -1.4201   -2.3644 C.3       1 <0>         0.1601
     21 H3          4.9768   -2.4503   -2.0308 H         1 <0>         0.1046
     22 C17         5.7315   -0.6013   -1.2621 C.2       1 <0>        -0.1421
     23 C18         5.3067   -0.7264   -0.0295 C.2       1 <0>        -0.1066
     24 C19         5.9197    0.0994    1.0727 C.3       1 <0>        -0.0891
     25 H4          6.2693    1.0478    0.6647 H         1 <0>         0.0874
     26 C20         4.8704    0.3651    2.1544 C.3       1 <0>         0.0927
     27 H5          4.3857   -0.5723    2.4271 H         1 <0>         0.0610
     28 C21         3.8216    1.3452    1.6294 C.3       1 <0>         0.0972
     29 H6          4.1156    2.3625    1.8878 H         1 <0>         0.0720
     30 C22         2.4604    1.0360    2.2520 C.3       1 <0>        -0.1095
     31 O2          3.7288    1.2247    0.2086 O.3       1 <0>        -0.3569
     32 C23         4.4612    2.2205   -0.5083 C.3       1 <0>         0.0038
     33 O3          5.5061    0.9237    3.3058 O.3       1 <0>        -0.5656
     34 C24         7.1000   -0.6596    1.6824 C.3       1 <0>        -0.1528
     35 C25         6.8387    0.3684   -1.5837 C.3       1 <0>        -0.1093
     36 O4          5.9350   -1.3879   -3.5248 O.3       1 <0>        -0.3404
     37 C26         6.8591   -2.3601   -3.6410 C.2       1 <0>         0.6463
     38 O5          6.9554   -3.2127   -2.7806 O.2       1 <0>        -0.5705
     39 N2          7.6773   -2.3878   -4.7116 N.am      1 <0>        -0.8269
     40 O6          3.9053    0.5602   -3.0364 O.3       1 <0>        -0.3529
     41 C27         2.7518    1.3660   -2.7871 C.3       1 <0>         0.0089
     42 C28        -0.9970   -0.5571   -4.3958 C.3       1 <0>        -0.1031
     43 O7         -4.1577    3.9405    1.2880 O.3       1 <0>        -0.4829
     44 N3         -2.0921    3.2128    2.9868 N.pl3     1 <0>        -0.7312
     45 C29        -2.9536    4.3250    3.3955 C.3       1 <0>         0.1465
     46 C30        -2.7317    4.6218    4.8562 C.2       1 <0>        -0.1801
     47 C31        -2.4038    5.8318    5.2363 C.2       1 <0>        -0.1649
     48 H7          2.6528    3.1408    0.5958 H         1 <0>         0.0642
     49 H8          0.9195    3.4488    0.3330 H         1 <0>         0.0482
     50 H9          1.6259    3.6624    1.9528 H         1 <0>         0.0478
     51 H10        -0.1439    0.4987    2.4492 H         1 <0>         0.0737
     52 H11         0.0416    2.1875    2.9748 H         1 <0>         0.0700
     53 H12        -4.0320    2.9578   -1.1264 H         1 <0>         0.1426
     54 H13         1.5887   -0.2969   -2.1040 H         1 <0>         0.1340
     55 H14         1.2425   -1.8884   -4.8026 H         1 <0>         0.1337
     56 H15         3.6624   -2.1370   -4.5265 H         1 <0>         0.1281
     57 H16         4.5128   -1.4226    0.2002 H         1 <0>         0.1066
     58 H17         2.4044    1.4882    3.2422 H         1 <0>         0.0742
     59 H18         2.3365   -0.0435    2.3382 H         1 <0>         0.0673
     60 H19         4.4648    1.9748   -1.5702 H         1 <0>         0.1089
     61 H20         3.9911    3.1930   -0.3620 H         1 <0>         0.0385
     62 H21         5.4864    2.2534   -0.1395 H         1 <0>         0.0441
     63 H22         6.1821    0.3536    3.6972 H         1 <0>         0.3796
     64 H23         7.8473   -0.8491    0.9118 H         1 <0>         0.0637
     65 H24         7.5433   -0.0624    2.4793 H         1 <0>         0.0596
     66 H25         6.7504   -1.6079    2.0905 H         1 <0>         0.0583
     67 H26         6.4113    1.3440   -1.8154 H         1 <0>         0.0713
     68 H27         7.5041    0.4580   -0.7250 H         1 <0>         0.0594
     69 H28         7.4017    0.0050   -2.4433 H         1 <0>         0.0573
     70 H29         7.6005   -1.7071   -5.3984 H         1 <0>         0.4091
     71 H30         8.3431   -3.0882   -4.7953 H         1 <0>         0.4258
     72 H31         1.9772    1.1270   -3.5158 H         1 <0>         0.0519
     73 H32         2.3793    1.1663   -1.7823 H         1 <0>         0.0627
     74 H33         3.0189    2.4192   -2.8729 H         1 <0>         0.0821
     75 H34        -0.8644    0.2260   -5.1423 H         1 <0>         0.0782
     76 H35        -0.6334   -1.5042   -4.7943 H         1 <0>         0.0775
     77 H36        -2.0548   -0.6487   -4.1493 H         1 <0>         0.0762
     78 H37        -3.9820    4.8828    1.1606 H         1 <0>         0.3824
     79 H38        -1.5010    2.7946    3.6323 H         1 <0>         0.4029
     80 H39        -2.7116    5.2082    2.8044 H         1 <0>         0.0574
     81 H40        -3.9971    4.0545    3.2341 H         1 <0>         0.0979
     82 H41        -2.8429    3.8369    5.5897 H         1 <0>         0.1142
     83 H42        -2.2926    6.6167    4.5027 H         1 <0>         0.0994
     84 H43        -2.2448    6.0445    6.2831 H         1 <0>         0.1031
@<TRIPOS>BOND
     1    1    2 1
     2    1   48 1
     3    1   49 1
     4    1   50 1
     5    2    3 1
     6    2   30 1
     7    2    4 1
     8    4    5 1
     9    4   51 1
    10    4   52 1
    11    5   10 ar
    12    5    6 ar
    13    6    7 ar
    14    6   44 1
    15    7    8 ar
    16    7   43 1
    17    8    9 ar
    18    8   53 1
    19    9   13 1
    20    9   10 ar
    21   10   11 1
    22   11   12 1
    23   12   13 2
    24   12   14 1
    25   14   15 2
    26   14   42 1
    27   15   16 1
    28   15   54 1
    29   16   17 2
    30   16   55 1
    31   17   18 1
    32   17   56 1
    33   18   19 1
    34   18   20 1
    35   18   40 1
    36   20   21 1
    37   20   22 1
    38   20   36 1
    39   22   23 2
    40   22   35 1
    41   23   24 1
    42   23   57 1
    43   24   25 1
    44   24   26 1
    45   24   34 1
    46   26   27 1
    47   26   28 1
    48   26   33 1
    49   28   29 1
    50   28   30 1
    51   28   31 1
    52   30   58 1
    53   30   59 1
    54   31   32 1
    55   32   60 1
    56   32   61 1
    57   32   62 1
    58   33   63 1
    59   34   64 1
    60   34   65 1
    61   34   66 1
    62   35   67 1
    63   35   68 1
    64   35   69 1
    65   36   37 1
    66   37   38 2
    67   37   39 am
    68   39   70 1
    69   39   71 1
    70   40   41 1
    71   41   72 1
    72   41   73 1
    73   41   74 1
    74   42   75 1
    75   42   76 1
    76   42   77 1
    77   43   78 1
    78   44   45 1
    79   44   79 1
    80   45   46 1
    81   45   80 1
    82   45   81 1
    83   46   47 2
    84   46   82 1
    85   47   83 1
    86   47   84 1
@<TRIPOS>MOLECULE
CHEMBL252164
   65    68     0     0     0
SMALL
USER_CHARGES

@<TRIPOS>ATOM
      1 C1         -0.0540    1.4997   -0.6888 C.3       1 <0>        -0.1676
      2 C2         -0.0248   -0.0232   -0.5441 C.3       1 <0>         0.1140
      3 N1         -1.3928   -0.5259   -0.3951 N.am      1 <0>        -0.7141
      4 C3         -1.6130   -1.8478   -0.2514 C.2       1 <0>         0.5894
      5 O1         -0.6770   -2.6225   -0.2455 O.2       1 <0>        -0.4924
      6 C4         -2.9970   -2.3563   -0.1006 C.2       1 <0>         0.0795
      7 C5         -3.3950   -3.7559    0.0696 C.2       1 <0>        -0.1609
      8 C6         -4.7761   -3.7654    0.1705 C.2       1 <0>         0.1363
      9 O2         -5.2044   -2.4950    0.0732 O.3       1 <0>        -0.0385
     10 N2         -4.0932   -1.6370   -0.0890 N.2       1 <0>        -0.2804
     11 C7         -5.6250   -4.9562    0.3522 C.ar      1 <0>        -0.0782
     12 C8         -5.3010   -5.9072    1.3239 C.ar      1 <0>        -0.0369
     13 C9         -6.0972   -7.0184    1.4908 C.ar      1 <0>        -0.1083
     14 C10        -7.2236   -7.1983    0.6957 C.ar      1 <0>         0.1512
     15 C11        -7.5536   -6.2605   -0.2717 C.ar      1 <0>        -0.1754
     16 C12        -6.7646   -5.1368   -0.4452 C.ar      1 <0>         0.1580
     17 O3         -7.0896   -4.2150   -1.3875 O.3       1 <0>        -0.4853
     18 O4         -8.0037   -8.2968    0.8667 O.3       1 <0>        -0.4905
     19 C13        -5.7462   -8.0431    2.5386 C.3       1 <0>        -0.0545
     20 C14        -4.3604   -8.6205    2.2432 C.3       1 <0>        -0.1431
     21 C15        -5.7394   -7.3807    3.9177 C.3       1 <0>        -0.1475
     22 C16        -2.4959   -4.9312    0.1228 C.ar      1 <0>        -0.0106
     23 C17        -2.5176   -5.8765   -0.9028 C.ar      1 <0>        -0.0945
     24 C18        -1.6770   -6.9693   -0.8477 C.ar      1 <0>        -0.1128
     25 C19        -0.8143   -7.1288    0.2220 C.ar      1 <0>        -0.0694
     26 C20        -0.7881   -6.1947    1.2422 C.ar      1 <0>        -0.0938
     27 C21        -1.6197   -5.0947    1.1958 C.ar      1 <0>        -0.0806
     28 C22         0.1004   -8.3252    0.2764 C.3       1 <0>         0.0934
     29 N3          1.3713   -8.0003   -0.3848 N.3       1 <0>        -0.5301
     30 C23         1.1753   -7.7835   -1.8256 C.3       1 <0>         0.0148
     31 C24         2.5104   -7.3900   -2.4633 C.3       1 <0>         0.0634
     32 O5          3.4790   -8.4077   -2.1958 O.3       1 <0>        -0.3859
     33 C25         3.6953   -8.6446   -0.8021 C.3       1 <0>         0.0633
     34 C26         2.3722   -9.0507   -0.1476 C.3       1 <0>         0.0173
     35 H1          0.9638    1.8737   -0.7997 H         1 <0>         0.0794
     36 H2         -0.6383    1.7699   -1.5684 H         1 <0>         0.0641
     37 H3         -0.5084    1.9403    0.1986 H         1 <0>         0.0642
     38 H4          0.4296   -0.4638   -1.4315 H         1 <0>         0.0742
     39 H5          0.5595   -0.2934    0.3355 H         1 <0>         0.0744
     40 H6         -2.1400    0.0926   -0.3998 H         1 <0>         0.4082
     41 H7         -4.4267   -5.7710    1.9430 H         1 <0>         0.1392
     42 H8         -8.4292   -6.4053   -0.8872 H         1 <0>         0.1448
     43 H9         -6.7618   -4.4251   -2.2727 H         1 <0>         0.3968
     44 H10        -8.7174   -8.1765    1.5080 H         1 <0>         0.3973
     45 H11        -6.4845   -8.8450    2.5243 H         1 <0>         0.0888
     46 H12        -3.6222   -7.8186    2.2575 H         1 <0>         0.0579
     47 H13        -4.1066   -9.3616    3.0010 H         1 <0>         0.0606
     48 H14        -4.3653   -9.0924    1.2607 H         1 <0>         0.0569
     49 H15        -6.7267   -6.9694    4.1281 H         1 <0>         0.0558
     50 H16        -5.4855   -8.1219    4.6755 H         1 <0>         0.0628
     51 H17        -5.0012   -6.5789    3.9320 H         1 <0>         0.0568
     52 H18        -3.1911   -5.7535   -1.7381 H         1 <0>         0.1165
     53 H19        -1.6928   -7.7019   -1.6411 H         1 <0>         0.1191
     54 H20        -0.1124   -6.3247    2.0747 H         1 <0>         0.1238
     55 H21        -1.5952   -4.3639    1.9906 H         1 <0>         0.1177
     56 H22         0.2895   -8.5910    1.3164 H         1 <0>         0.0856
     57 H23        -0.3701   -9.1657   -0.2337 H         1 <0>         0.0449
     58 H24         0.8088   -8.7014   -2.2853 H         1 <0>         0.0419
     59 H25         0.4497   -6.9845   -1.9780 H         1 <0>         0.0915
     60 H26         2.3819   -7.2839   -3.5405 H         1 <0>         0.0976
     61 H27         2.8504   -6.4441   -2.0417 H         1 <0>         0.0607
     62 H28         4.4238   -9.4457   -0.6779 H         1 <0>         0.0986
     63 H29         4.0698   -7.7351   -0.3322 H         1 <0>         0.0604
     64 H30         2.5203   -9.1768    0.9249 H         1 <0>         0.0872
     65 H31         2.0249   -9.9888   -0.5804 H         1 <0>         0.0435
@<TRIPOS>BOND
     1    1    2 1
     2    1   35 1
     3    1   36 1
     4    1   37 1
     5    2    3 1
     6    2   38 1
     7    2   39 1
     8    3    4 am
     9    3   40 1
    10    4    5 2
    11    4    6 1
    12    6   10 2
    13    6    7 1
    14    7    8 2
    15    7   22 1
    16    8    9 1
    17    8   11 1
    18    9   10 1
    19   11   16 ar
    20   11   12 ar
    21   12   13 ar
    22   12   41 1
    23   13   14 ar
    24   13   19 1
    25   14   15 ar
    26   14   18 1
    27   15   16 ar
    28   15   42 1
    29   16   17 1
    30   17   43 1
    31   18   44 1
    32   19   20 1
    33   19   21 1
    34   19   45 1
    35   20   46 1
    36   20   47 1
    37   20   48 1
    38   21   49 1
    39   21   50 1
    40   21   51 1
    41   22   27 ar
    42   22   23 ar
    43   23   24 ar
    44   23   52 1
    45   24   25 ar
    46   24   53 1
    47   25   26 ar
    48   25   28 1
    49   26   27 ar
    50   26   54 1
    51   27   55 1
    52   28   29 1
    53   28   56 1
    54   28   57 1
    55   29   34 1
    56   29   30 1
    57   30   31 1
    58   30   58 1
    59   30   59 1
    60   31   32 1
    61   31   60 1
    62   31   61 1
    63   32   33 1
    64   33   34 1
    65   33   62 1
    66   33   63 1
    67   34   64 1
    68   34   65 1
@<TRIPOS>MOLECULE
CHEMBL200628
   41    44     0     0     0
SMALL
USER_CHARGES

@<TRIPOS>ATOM
      1 C1         -0.0164    1.3570    0.0095 C.ar      1 <0>        -0.1190
      2 C2          1.1684    2.0900    0.0021 C.ar      1 <0>        -0.1230
      3 C3          2.3784    1.4649   -0.0133 C.ar      1 <0>        -0.0915
      4 C4          2.4363    0.0635   -0.0213 C.ar      1 <0>        -0.0281
      5 C5          1.2327   -0.6833   -0.0134 C.ar      1 <0>        -0.0583
      6 C6          0.0021   -0.0041    0.0020 C.ar      1 <0>        -0.1105
      7 C7          1.2868   -2.0881   -0.0205 C.ar      1 <0>        -0.1047
      8 C8          2.4891   -2.7259   -0.0345 C.ar      1 <0>        -0.1311
      9 C9          3.6854   -2.0079   -0.0421 C.ar      1 <0>         0.1169
     10 C10         3.6754   -0.6190   -0.0368 C.ar      1 <0>        -0.0269
     11 C11         4.9470    0.1387   -0.0459 C.ar      1 <0>        -0.0303
     12 C12         5.5631    0.4861    1.1556 C.ar      1 <0>        -0.1411
     13 C13         6.7538    1.1951    1.1402 C.ar      1 <0>         0.2782
     14 C14         7.3325    1.5595   -0.0698 C.ar      1 <0>        -0.2470
     15 C15         6.7251    1.2176   -1.2630 C.ar      1 <0>        -0.0819
     16 C16         5.5383    0.5038   -1.2602 C.ar      1 <0>         0.0011
     17 O1          4.9458    0.1633   -2.4355 O.3       1 <0>        -0.4964
     18 N1          7.3741    1.5450    2.3449 N.2       1 <0>        -1.0843
     19 S1          8.7969    2.3922    2.3280 S.o2      1 <0>         2.6314
     20 O2          9.7740    1.5336    1.7559 O.2       1 <0>        -1.0201
     21 O3          8.5002    3.6736    1.7902 O.2       1 <0>        -1.0217
     22 C17         9.2711    2.6476    4.0056 C.2       1 <0>        -0.6676
     23 C18        10.0439    1.8693    4.8022 C.2       1 <0>        -0.0449
     24 C19        10.2868    2.2731    6.1017 C.2       1 <0>        -0.1802
     25 C20         9.7450    3.4353    6.5410 C.2       1 <0>        -0.1688
     26 S2          8.8649    4.0024    5.0950 S.3       1 <0>         0.1393
     27 O4          4.8699   -2.6728   -0.0556 O.3       1 <0>        -0.4883
     28 H1         -0.9632    1.8762    0.0259 H         1 <0>         0.1187
     29 H2          1.1268    3.1692    0.0083 H         1 <0>         0.1213
     30 H3          3.2891    2.0456   -0.0196 H         1 <0>         0.1319
     31 H4         -0.9242   -0.5594    0.0082 H         1 <0>         0.1230
     32 H5          0.3723   -2.6626   -0.0145 H         1 <0>         0.1265
     33 H6          2.5176   -3.8055   -0.0395 H         1 <0>         0.1268
     34 H7          5.1133    0.2038    2.0960 H         1 <0>         0.1173
     35 H8          8.2603    2.1122   -0.0775 H         1 <0>         0.1019
     36 H9          7.1792    1.5041   -2.2001 H         1 <0>         0.1118
     37 H10         4.3222    0.8236   -2.7674 H         1 <0>         0.3628
     38 H11        10.4633    0.9474    4.4272 H         1 <0>         0.1432
     39 H12        10.8988    1.6713    6.7572 H         1 <0>         0.1366
     40 H13         9.8277    3.8998    7.5126 H         1 <0>         0.1884
     41 H14         5.2050   -2.8615   -0.9429 H         1 <0>         0.3889
@<TRIPOS>BOND
     1    1    6 ar
     2    1    2 ar
     3    1   28 1
     4    2    3 ar
     5    2   29 1
     6    3    4 ar
     7    3   30 1
     8    4   10 ar
     9    4    5 ar
    10    5    6 ar
    11    5    7 ar
    12    6   31 1
    13    7    8 ar
    14    7   32 1
    15    8    9 ar
    16    8   33 1
    17    9   10 ar
    18    9   27 1
    19   10   11 1
    20   11   16 ar
    21   11   12 ar
    22   12   13 ar
    23   12   34 1
    24   13   14 ar
    25   13   18 1
    26   14   15 ar
    27   14   35 1
    28   15   16 ar
    29   15   36 1
    30   16   17 1
    31   17   37 1
    32   18   19 1
    33   19   20 2
    34   19   21 2
    35   19   22 1
    36   22   26 1
    37   22   23 2
    38   23   24 1
    39   23   38 1
    40   24   25 2
    41   24   39 1
    42   25   26 1
    43   25   40 1
    44   27   41 1
@<TRIPOS>MOLECULE
CHEMBL514748
   42    44     0     0     0
SMALL
USER_CHARGES

@<TRIPOS>ATOM
      1 C1          0.8814   -7.1286   -0.8650 C.3       1 <0>        -0.1472
      2 C2          1.0333   -6.4737   -2.2394 C.3       1 <0>        -0.0816
      3 C3          1.2608   -4.9939   -2.0684 C.ar      1 <0>        -0.1105
      4 C4          2.5374   -4.4788   -2.1610 C.ar      1 <0>        -0.0566
      5 C5          2.7493   -3.1107   -2.0030 C.ar      1 <0>        -0.0429
      6 C6          1.6645   -2.2634   -1.7507 C.ar      1 <0>         0.1459
      7 C7          0.3876   -2.7890   -1.6595 C.ar      1 <0>        -0.1707
      8 C8          0.1844   -4.1517   -1.8236 C.ar      1 <0>         0.1386
      9 O1         -1.0713   -4.6644   -1.7390 O.3       1 <0>        -0.4915
     10 O2          1.8644   -0.9285   -1.5953 O.3       1 <0>        -0.4864
     11 C9          4.1193   -2.5546   -2.1015 C.2       1 <0>         0.0722
     12 C10         4.7715   -2.3494   -3.3214 C.2       1 <0>        -0.1053
     13 S1          6.3226   -1.6848   -2.7403 S.3       1 <0>         0.2768
     14 N1          6.0188   -1.7285   -1.1487 N.2       1 <0>        -0.2128
     15 N2          4.8300   -2.2040   -1.0455 N.2       1 <0>        -0.2342
     16 C11         4.3082   -2.6094   -4.6997 C.ar      1 <0>        -0.0616
     17 C12         3.0390   -2.1892   -5.1027 C.ar      1 <0>        -0.0379
     18 C13         2.6106   -2.4339   -6.3898 C.ar      1 <0>        -0.1481
     19 C14         3.4390   -3.0977   -7.2851 C.ar      1 <0>         0.1542
     20 C15         4.7017   -3.5177   -6.8882 C.ar      1 <0>        -0.2065
     21 C16         5.1405   -3.2711   -5.6050 C.ar      1 <0>        -0.0471
     22 O3          3.0127   -3.3373   -8.5528 O.3       1 <0>        -0.3110
     23 C17         3.9152   -4.0247   -9.4217 C.3       1 <0>         0.0518
     24 C18         3.2651   -4.2019  -10.7954 C.3       1 <0>        -0.1542
     25 H1          1.7881   -6.9653   -0.2825 H         1 <0>         0.0563
     26 H2          0.0310   -6.6880   -0.3446 H         1 <0>         0.0526
     27 H3          0.7168   -8.1990   -0.9887 H         1 <0>         0.0620
     28 H4          1.8837   -6.9143   -2.7598 H         1 <0>         0.0731
     29 H5          0.1265   -6.6370   -2.8219 H         1 <0>         0.0818
     30 H6          3.3721   -5.1359   -2.3555 H         1 <0>         0.1327
     31 H7         -0.4516   -2.1378   -1.4644 H         1 <0>         0.1416
     32 H8         -1.3284   -4.9296   -0.8453 H         1 <0>         0.3937
     33 H9          1.7367   -0.4149   -2.4045 H         1 <0>         0.3899
     34 H10         2.3938   -1.6735   -4.4069 H         1 <0>         0.1274
     35 H11         1.6291   -2.1092   -6.7024 H         1 <0>         0.1398
     36 H12         5.3428   -4.0339   -7.5875 H         1 <0>         0.1368
     37 H13         6.1247   -3.5935   -5.2987 H         1 <0>         0.1315
     38 H14         4.8321   -3.4446   -9.5258 H         1 <0>         0.0654
     39 H15         4.1498   -5.0028   -9.0018 H         1 <0>         0.0653
     40 H16         2.3482   -4.7820  -10.6913 H         1 <0>         0.0679
     41 H17         3.0305   -3.2238  -11.2153 H         1 <0>         0.0678
     42 H18         3.9535   -4.7262  -11.4582 H         1 <0>         0.0808
@<TRIPOS>BOND
     1    1    2 1
     2    1   25 1
     3    1   26 1
     4    1   27 1
     5    2    3 1
     6    2   28 1
     7    2   29 1
     8    3    8 ar
     9    3    4 ar
    10    4    5 ar
    11    4   30 1
    12    5    6 ar
    13    5   11 1
    14    6    7 ar
    15    6   10 1
    16    7    8 ar
    17    7   31 1
    18    8    9 1
    19    9   32 1
    20   10   33 1
    21   11   15 1
    22   11   12 2
    23   12   13 1
    24   12   16 1
    25   13   14 1
    26   14   15 2
    27   16   21 ar
    28   16   17 ar
    29   17   18 ar
    30   17   34 1
    31   18   19 ar
    32   18   35 1
    33   19   20 ar
    34   19   22 1
    35   20   21 ar
    36   20   36 1
    37   21   37 1
    38   22   23 1
    39   23   24 1
    40   23   38 1
    41   23   39 1
    42   24   40 1
    43   24   41 1
    44   24   42 1
@<TRIPOS>MOLECULE
CHEMBL404630
   47    50     0     0     0
SMALL
USER_CHARGES

@<TRIPOS>ATOM
      1 C1          0.0054    1.3944    0.3540 C.ar      1 <0>        -0.1281
      2 C2          1.1726    2.1072    0.1890 C.ar      1 <0>        -0.0734
      3 C3          2.3849    1.4387    0.0686 C.ar      1 <0>         0.0325
      4 C4          2.4118    0.0369    0.1166 C.ar      1 <0>        -0.1342
      5 C5          1.2265   -0.6782    0.2843 C.ar      1 <0>        -0.1297
      6 C6          0.0279    0.0023    0.4022 C.ar      1 <0>         0.1974
      7 N1         -1.1651   -0.7094    0.5702 N.pl3     1 <0>        -0.7468
      8 C7         -2.4355    0.0094    0.6952 C.3       1 <0>         0.1273
      9 C8         -3.5756   -0.9963    0.8677 C.3       1 <0>         0.0447
     10 N2         -4.8495   -0.2755    0.9931 N.3       1 <0>        -0.5334
     11 C9         -4.8916    0.5076    2.2365 C.3       1 <0>         0.0119
     12 C10        -6.2077    1.2874    2.2978 C.3       1 <0>         0.0625
     13 O1         -7.3028    0.3733    2.1963 O.3       1 <0>        -0.3845
     14 C11        -7.2935   -0.4054    0.9968 C.3       1 <0>         0.0628
     15 C12        -5.9884   -1.2024    0.9224 C.3       1 <0>         0.0182
     16 C13         3.8223   -0.3581   -0.0374 C.2       1 <0>         0.1591
     17 N3          4.5194    0.7407   -0.1608 N.2       1 <0>        -0.2493
     18 O2          3.6571    1.8586   -0.0987 O.3       1 <0>        -0.0845
     19 C14         4.3515   -1.7407   -0.0494 C.ar      1 <0>        -0.0614
     20 C15         3.7339   -2.7196   -0.8281 C.ar      1 <0>        -0.0479
     21 C16         4.2293   -4.0062   -0.8376 C.ar      1 <0>        -0.0755
     22 C17         5.3439   -4.3318   -0.0721 C.ar      1 <0>         0.1558
     23 C18         5.9632   -3.3646    0.7049 C.ar      1 <0>        -0.1615
     24 C19         5.4765   -2.0684    0.7160 C.ar      1 <0>         0.1678
     25 O3          6.0855   -1.1188    1.4722 O.3       1 <0>        -0.4800
     26 O4          5.8271   -5.6014   -0.0853 O.3       1 <0>        -0.4825
     27 Cl1         3.4596   -5.2232   -1.8072 Cl        1 <0>        -0.0416
     28 H1         -0.9336    1.9189    0.4512 H         1 <0>         0.1401
     29 H2          1.1454    3.1862    0.1528 H         1 <0>         0.1422
     30 H3          1.2440   -1.7574    0.3213 H         1 <0>         0.1311
     31 H4         -1.1509   -1.6787    0.6040 H         1 <0>         0.4013
     32 H5         -2.3969    0.6672    1.5634 H         1 <0>         0.0614
     33 H6         -2.6072    0.6027   -0.2029 H         1 <0>         0.0722
     34 H7         -3.6143   -1.6541   -0.0005 H         1 <0>         0.0842
     35 H8         -3.4040   -1.5896    1.7658 H         1 <0>         0.0433
     36 H9         -4.8266   -0.1644    3.0923 H         1 <0>         0.0458
     37 H10        -4.0541    1.2049    2.2560 H         1 <0>         0.0897
     38 H11        -6.2686    1.8248    3.2442 H         1 <0>         0.1002
     39 H12        -6.2487    1.9977    1.4720 H         1 <0>         0.0618
     40 H13        -8.1397   -1.0924    1.0023 H         1 <0>         0.1006
     41 H14        -7.3660    0.2556    0.1331 H         1 <0>         0.0619
     42 H15        -5.9515   -1.7534   -0.0174 H         1 <0>         0.0888
     43 H16        -5.9409   -1.9018    1.7571 H         1 <0>         0.0455
     44 H17         2.8678   -2.4698   -1.4230 H         1 <0>         0.1494
     45 H18         6.8280   -3.6215    1.2986 H         1 <0>         0.1545
     46 H19         5.7385   -1.0504    2.3722 H         1 <0>         0.3990
     47 H20         6.4935   -5.7615   -0.7674 H         1 <0>         0.4015
@<TRIPOS>BOND
     1    1    6 ar
     2    1    2 ar
     3    1   28 1
     4    2    3 ar
     5    2   29 1
     6    3   18 1
     7    3    4 ar
     8    4    5 ar
     9    4   16 1
    10    5    6 ar
    11    5   30 1
    12    6    7 1
    13    7    8 1
    14    7   31 1
    15    8    9 1
    16    8   32 1
    17    8   33 1
    18    9   10 1
    19    9   34 1
    20    9   35 1
    21   10   15 1
    22   10   11 1
    23   11   12 1
    24   11   36 1
    25   11   37 1
    26   12   13 1
    27   12   38 1
    28   12   39 1
    29   13   14 1
    30   14   15 1
    31   14   40 1
    32   14   41 1
    33   15   42 1
    34   15   43 1
    35   16   17 2
    36   16   19 1
    37   17   18 1
    38   19   24 ar
    39   19   20 ar
    40   20   21 ar
    41   20   44 1
    42   21   22 ar
    43   21   27 1
    44   22   23 ar
    45   22   26 1
    46   23   24 ar
    47   23   45 1
    48   24   25 1
    49   25   46 1
    50   26   47 1
@<TRIPOS>MOLECULE
CHEMBL404630__1
   48    51     0     0     0
SMALL
USER_CHARGES

@<TRIPOS>ATOM
      1 C1          0.0054    1.3944    0.3540 C.ar      1 <0>        -0.1285
      2 C2          1.1726    2.1072    0.1890 C.ar      1 <0>        -0.0735
      3 C3          2.3849    1.4387    0.0686 C.ar      1 <0>         0.0483
      4 C4          2.4118    0.0369    0.1166 C.ar      1 <0>        -0.1347
      5 C5          1.2265   -0.6782    0.2843 C.ar      1 <0>        -0.1097
      6 C6          0.0279    0.0023    0.4022 C.ar      1 <0>         0.1768
      7 N1         -1.1651   -0.7094    0.5702 N.pl3     1 <0>        -0.7481
      8 C7         -2.4355    0.0094    0.6952 C.3       1 <0>         0.1051
      9 C8         -3.5756   -0.9963    0.8677 C.3       1 <0>        -0.0208
     10 N2         -4.8495   -0.2755    0.9931 N.4       1 <0>        -0.3817
     11 C9         -4.8433    0.5193    2.2289 C.3       1 <0>        -0.0507
     12 C10        -6.1714    1.2694    2.3571 C.3       1 <0>         0.0363
     13 O1         -7.2480    0.3277    2.3435 O.3       1 <0>        -0.3554
     14 C11        -7.2824   -0.4876    1.1688 C.3       1 <0>         0.0357
     15 C12        -5.9563   -1.2410    1.0384 C.3       1 <0>        -0.0426
     16 C13         3.8223   -0.3581   -0.0374 C.2       1 <0>         0.1626
     17 N3          4.5194    0.7407   -0.1608 N.2       1 <0>        -0.2381
     18 O2          3.6571    1.8586   -0.0987 O.3       1 <0>        -0.0807
     19 C14         4.3515   -1.7407   -0.0494 C.ar      1 <0>        -0.0700
     20 C15         3.7339   -2.7196   -0.8281 C.ar      1 <0>        -0.0486
     21 C16         4.2293   -4.0062   -0.8376 C.ar      1 <0>        -0.0773
     22 C17         5.3439   -4.3318   -0.0721 C.ar      1 <0>         0.1617
     23 C18         5.9632   -3.3646    0.7049 C.ar      1 <0>        -0.1605
     24 C19         5.4765   -2.0684    0.7160 C.ar      1 <0>         0.1713
     25 O3          6.0855   -1.1188    1.4722 O.3       1 <0>        -0.4792
     26 O4          5.8271   -5.6014   -0.0853 O.3       1 <0>        -0.4821
     27 Cl1         3.4596   -5.2232   -1.8072 Cl        1 <0>        -0.0399
     28 H1         -0.9336    1.9189    0.4512 H         1 <0>         0.1351
     29 H2          1.1454    3.1862    0.1528 H         1 <0>         0.1464
     30 H3          1.2440   -1.7574    0.3213 H         1 <0>         0.1355
     31 H4         -1.1509   -1.6787    0.6040 H         1 <0>         0.4083
     32 H5         -2.3969    0.6672    1.5634 H         1 <0>         0.0803
     33 H6         -2.6072    0.6027   -0.2029 H         1 <0>         0.0811
     34 H7         -3.6143   -1.6541   -0.0005 H         1 <0>         0.1406
     35 H8         -3.4040   -1.5896    1.7658 H         1 <0>         0.1386
     36 H9         -4.7150   -0.1420    3.0859 H         1 <0>         0.1417
     37 H10        -4.0226    1.2359    2.1962 H         1 <0>         0.1442
     38 H11        -6.1863    1.8257    3.2943 H         1 <0>         0.1436
     39 H12        -6.2814    1.9602    1.5211 H         1 <0>         0.0829
     40 H13        -8.1013   -1.2028    1.2460 H         1 <0>         0.1438
     41 H14        -7.4304    0.1431    0.2922 H         1 <0>         0.0827
     42 H15        -5.9619   -1.8310    0.1220 H         1 <0>         0.1446
     43 H16        -5.8276   -1.9016    1.8958 H         1 <0>         0.1408
     44 H17         2.8678   -2.4698   -1.4230 H         1 <0>         0.1471
     45 H18         6.8280   -3.6215    1.2986 H         1 <0>         0.1570
     46 H19         5.7385   -1.0504    2.3722 H         1 <0>         0.3997
     47 H20         6.4935   -5.7615   -0.7674 H         1 <0>         0.4049
     48 H21        -4.9692    0.3365    0.1999 H         1 <0>         0.4254
@<TRIPOS>BOND
     1    1    6 ar
     2    1    2 ar
     3    1   28 1
     4    2    3 ar
     5    2   29 1
     6    3   18 1
     7    3    4 ar
     8    4    5 ar
     9    4   16 1
    10    5    6 ar
    11    5   30 1
    12    6    7 1
    13    7    8 1
    14    7   31 1
    15    8    9 1
    16    8   32 1
    17    8   33 1
    18    9   10 1
    19    9   34 1
    20    9   35 1
    21   10   15 1
    22   10   11 1
    23   10   48 1
    24   11   12 1
    25   11   36 1
    26   11   37 1
    27   12   13 1
    28   12   38 1
    29   12   39 1
    30   13   14 1
    31   14   15 1
    32   14   40 1
    33   14   41 1
    34   15   42 1
    35   15   43 1
    36   16   17 2
    37   16   19 1
    38   17   18 1
    39   19   24 ar
    40   19   20 ar
    41   20   21 ar
    42   20   44 1
    43   21   22 ar
    44   21   27 1
    45   22   23 ar
    46   22   26 1
    47   23   24 ar
    48   23   45 1
    49   24   25 1
    50   25   46 1
    51   26   47 1
@<TRIPOS>MOLECULE
CHEMBL366215
   39    41     0     0     0
SMALL
USER_CHARGES

@<TRIPOS>ATOM
      1 C1         -0.2395    1.6485   -0.3251 C.3       1 <0>         0.0265
      2 O1         -0.0737    0.2359   -0.1874 O.3       1 <0>        -0.3170
      3 C2          0.5449   -0.4148   -1.2070 C.ar      1 <0>         0.1352
      4 C3          0.9880    0.2959   -2.3147 C.ar      1 <0>        -0.2049
      5 C4          1.6165   -0.3609   -3.3510 C.ar      1 <0>        -0.0408
      6 C5          1.8073   -1.7417   -3.2859 C.ar      1 <0>        -0.0541
      7 C6          1.3608   -2.4525   -2.1713 C.ar      1 <0>        -0.0572
      8 C7          0.7378   -1.7883   -1.1364 C.ar      1 <0>        -0.1505
      9 C8          2.4814   -2.4507   -4.3969 C.2       1 <0>        -0.0890
     10 C9          1.8865   -3.3759   -5.2850 C.2       1 <0>         0.1205
     11 N1          2.8049   -3.7884   -6.1318 N.2       1 <0>        -0.2195
     12 N2          4.0181   -3.1576   -5.8339 N.pl3     1 <0>        -0.4543
     13 H1          4.8558   -3.2841   -6.3061 H         1 <0>         0.4446
     14 C10         3.8168   -2.3264   -4.7656 C.2       1 <0>         0.0327
     15 C11         4.8219   -1.4682   -4.1266 C.2       1 <0>         0.5869
     16 O2          4.5135   -0.7745   -3.1757 O.2       1 <0>        -0.4988
     17 N3          6.0861   -1.4487   -4.5932 N.am      1 <0>        -0.8494
     18 C12         0.4684   -3.8079   -5.2654 C.ar      1 <0>        -0.0412
     19 C13        -0.5495   -2.8607   -5.1689 C.ar      1 <0>        -0.0475
     20 C14        -1.8684   -3.2656   -5.1508 C.ar      1 <0>        -0.0722
     21 C15        -2.1853   -4.6166   -5.2286 C.ar      1 <0>         0.1473
     22 C16        -1.1779   -5.5646   -5.3247 C.ar      1 <0>        -0.1629
     23 C17         0.1481   -5.1665   -5.3493 C.ar      1 <0>         0.1589
     24 O3          1.1358   -6.0941   -5.4497 O.3       1 <0>        -0.4804
     25 O4         -3.4861   -5.0097   -5.2098 O.3       1 <0>        -0.4835
     26 Cl1        -3.1351   -2.0846   -5.0301 Cl        1 <0>        -0.0462
     27 H2          0.7377    2.1211   -0.4241 H         1 <0>         0.0561
     28 H3         -0.8366    1.8595   -1.2123 H         1 <0>         0.0561
     29 H4         -0.7461    2.0425    0.5559 H         1 <0>         0.1002
     30 H5          0.8396    1.3645   -2.3646 H         1 <0>         0.1285
     31 H6          1.9605    0.1924   -4.2123 H         1 <0>         0.1196
     32 H7          1.5065   -3.5213   -2.1177 H         1 <0>         0.1245
     33 H8          0.3959   -2.3372   -0.2714 H         1 <0>         0.1316
     34 H9          6.3319   -2.0017   -5.3513 H         1 <0>         0.3977
     35 H10         6.7502   -0.8816   -4.1710 H         1 <0>         0.4140
     36 H11        -0.3059   -1.8103   -5.1080 H         1 <0>         0.1455
     37 H12        -1.4278   -6.6135   -5.3849 H         1 <0>         0.1502
     38 H13         1.4531   -6.4245   -4.5981 H         1 <0>         0.3945
     39 H14        -3.8927   -5.0656   -6.0854 H         1 <0>         0.3984
@<TRIPOS>BOND
     1    1    2 1
     2    1   27 1
     3    1   28 1
     4    1   29 1
     5    2    3 1
     6    3    8 ar
     7    3    4 ar
     8    4    5 ar
     9    4   30 1
    10    5    6 ar
    11    5   31 1
    12    6    7 ar
    13    6    9 1
    14    7    8 ar
    15    7   32 1
    16    8   33 1
    17    9   14 2
    18    9   10 1
    19   10   11 2
    20   10   18 1
    21   11   12 1
    22   12   13 1
    23   12   14 1
    24   14   15 1
    25   15   16 2
    26   15   17 am
    27   17   34 1
    28   17   35 1
    29   18   23 ar
    30   18   19 ar
    31   19   20 ar
    32   19   36 1
    33   20   21 ar
    34   20   26 1
    35   21   22 ar
    36   21   25 1
    37   22   23 ar
    38   22   37 1
    39   23   24 1
    40   24   38 1
    41   25   39 1
@<TRIPOS>MOLECULE
CHEMBL366215__1
   39    41     0     0     0
SMALL
USER_CHARGES

@<TRIPOS>ATOM
      1 C1         -0.0173    1.4248    0.0099 C.3       1 <0>         0.0271
      2 O1          0.0021   -0.0041    0.0020 O.3       1 <0>        -0.3191
      3 C2          0.6058   -0.6071   -1.0557 C.ar      1 <0>         0.1315
      4 C3          1.1724    0.1640   -2.0616 C.ar      1 <0>        -0.2066
      5 C4          1.7854   -0.4445   -3.1366 C.ar      1 <0>        -0.0234
      6 C5          1.8362   -1.8365   -3.2123 C.ar      1 <0>        -0.0413
      7 C6          1.2661   -2.6080   -2.1995 C.ar      1 <0>        -0.0630
      8 C7          0.6594   -1.9927   -1.1249 C.ar      1 <0>        -0.1549
      9 C8          2.4932   -2.4937   -4.3655 C.2       1 <0>        -0.0584
     10 C9          1.8986   -3.2873   -5.3397 C.2       1 <0>         0.0581
     11 N1          2.8949   -3.6654   -6.1904 N.pl3     1 <0>        -0.3667
     12 N2          4.0167   -3.1712   -5.8107 N.2       1 <0>        -0.2464
     13 H1          2.7731   -4.2278   -6.9713 H         1 <0>         0.4496
     14 C10         3.8693   -2.4456   -4.7215 C.2       1 <0>        -0.0064
     15 C11         4.9345   -1.7207   -4.0022 C.2       1 <0>         0.6053
     16 O2          4.6677   -1.0853   -3.0005 O.2       1 <0>        -0.5179
     17 N3          6.2030   -1.7629   -4.4557 N.am      1 <0>        -0.8432
     18 C12         0.4702   -3.6496   -5.4343 C.ar      1 <0>        -0.0574
     19 C13         0.0735   -4.9799   -5.2844 C.ar      1 <0>        -0.0603
     20 C14        -1.2615   -5.3143   -5.3729 C.ar      1 <0>        -0.0745
     21 C15        -2.2144   -4.3302   -5.6112 C.ar      1 <0>         0.1517
     22 C16        -1.8288   -3.0065   -5.7618 C.ar      1 <0>        -0.1612
     23 C17        -0.4921   -2.6591   -5.6690 C.ar      1 <0>         0.1690
     24 O3         -0.1141   -1.3621   -5.8108 O.3       1 <0>        -0.4777
     25 O4         -3.5281   -4.6667   -5.6973 O.3       1 <0>        -0.4840
     26 Cl1        -1.7535   -6.9687   -5.1869 Cl        1 <0>        -0.0446
     27 H2          1.0053    1.8021    0.0021 H         1 <0>         0.0562
     28 H3         -0.5445    1.7859   -0.8732 H         1 <0>         0.0552
     29 H4         -0.5275    1.7763    0.9067 H         1 <0>         0.0993
     30 H5          1.1328    1.2416   -2.0023 H         1 <0>         0.1268
     31 H6          2.2254    0.1559   -3.9191 H         1 <0>         0.1186
     32 H7          1.3033   -3.6860   -2.2550 H         1 <0>         0.1227
     33 H8          0.2217   -2.5893   -0.3382 H         1 <0>         0.1293
     34 H9          6.4157   -2.2698   -5.2548 H         1 <0>         0.4067
     35 H10         6.9031   -1.2864   -3.9828 H         1 <0>         0.4076
     36 H11         0.8115   -5.7465   -5.0995 H         1 <0>         0.1448
     37 H12        -2.5724   -2.2457   -5.9474 H         1 <0>         0.1513
     38 H13         0.0834   -1.1074   -6.7225 H         1 <0>         0.3951
     39 H14        -3.9973   -4.6395   -4.8521 H         1 <0>         0.4009
@<TRIPOS>BOND
     1    1    2 1
     2    1   27 1
     3    1   28 1
     4    1   29 1
     5    2    3 1
     6    3    8 ar
     7    3    4 ar
     8    4    5 ar
     9    4   30 1
    10    5    6 ar
    11    5   31 1
    12    6    7 ar
    13    6    9 1
    14    7    8 ar
    15    7   32 1
    16    8   33 1
    17    9   14 1
    18    9   10 2
    19   10   18 1
    20   10   11 1
    21   11   12 1
    22   11   13 1
    23   12   14 2
    24   14   15 1
    25   15   16 2
    26   15   17 am
    27   17   34 1
    28   17   35 1
    29   18   23 ar
    30   18   19 ar
    31   19   20 ar
    32   19   36 1
    33   20   21 ar
    34   20   26 1
    35   21   22 ar
    36   21   25 1
    37   22   23 ar
    38   22   37 1
    39   23   24 1
    40   24   38 1
    41   25   39 1
@<TRIPOS>MOLECULE
CHEMBL385927
   41    44     0     0     0
SMALL
USER_CHARGES

@<TRIPOS>ATOM
      1 C1         -0.0167    1.3827    0.0096 C.ar      1 <0>        -0.1008
      2 C2          1.1420    2.1150    0.0025 C.ar      1 <0>        -0.0476
      3 C3          2.4024    1.4739   -0.0129 C.ar      1 <0>         0.0921
      4 C4          2.3838    0.0606   -0.0203 C.ar      1 <0>        -0.1472
      5 C5          1.2184   -0.6652   -0.0128 C.ar      1 <0>         0.0124
      6 C6          0.0021   -0.0041    0.0020 C.ar      1 <0>        -0.0789
      7 Cl1         1.2696   -2.4004   -0.0225 Cl        1 <0>        -0.0491
      8 S1          4.1144   -0.3409   -0.0383 S.3       1 <0>         0.0899
      9 C7          4.7340    1.3355   -0.0350 C.2       1 <0>         0.0832
     10 N1          3.6271    2.0432   -0.0211 N.2       1 <0>        -0.4418
     11 S2          6.4043    1.8964   -0.0469 S.3       1 <0>         0.2765
     12 C8          6.2642    3.6528   -0.0365 C.2       1 <0>         0.1998
     13 N2          5.1365    4.3189   -0.0174 N.2       1 <0>        -0.3975
     14 C9          5.3992    5.6493   -0.0147 C.ar      1 <0>        -0.1084
     15 C10         4.6075    6.8096    0.0016 C.ar      1 <0>         0.5163
     16 N3          5.2153    7.9915   -0.0017 N.ar      1 <0>        -0.5925
     17 C11         6.5326    8.0827   -0.0199 C.ar      1 <0>         0.3716
     18 N4          7.3137    7.0228   -0.0356 N.ar      1 <0>        -0.5588
     19 C12         6.7954    5.7994   -0.0337 C.ar      1 <0>         0.3203
     20 N5          7.3172    4.5267   -0.0413 N.pl3     1 <0>        -0.4490
     21 C13         8.7385    4.1721   -0.0557 C.3       1 <0>         0.1052
     22 C14         9.2207    4.0568   -1.5031 C.3       1 <0>        -0.1383
     23 C15        10.7052    3.6865   -1.5182 C.3       1 <0>        -0.1133
     24 C16        11.1874    3.5712   -2.9656 C.3       1 <0>        -0.0249
     25 C17        12.6155    3.2149   -2.9801 C.1       1 <0>         0.2013
     26 N6         13.7177    2.9399   -2.9913 N.1       1 <0>        -0.4318
     27 N7          3.2248    6.7239    0.0202 N.pl3     1 <0>        -0.8145
     28 H1         -0.9661    1.8974    0.0260 H         1 <0>         0.1472
     29 H2          1.0918    3.1938    0.0084 H         1 <0>         0.1408
     30 H3         -0.9224   -0.5624    0.0084 H         1 <0>         0.1516
     31 H4          6.9860    9.0629   -0.0223 H         1 <0>         0.2072
     32 H5          9.3110    4.9448    0.4575 H         1 <0>         0.1086
     33 H6          8.8801    3.2178    0.4516 H         1 <0>         0.0981
     34 H7          8.6483    3.2841   -2.0163 H         1 <0>         0.0789
     35 H8          9.0792    5.0111   -2.0104 H         1 <0>         0.0819
     36 H9         11.2776    4.4591   -1.0050 H         1 <0>         0.0796
     37 H10        10.8467    2.7321   -1.0109 H         1 <0>         0.0789
     38 H11        10.6149    2.7985   -3.4788 H         1 <0>         0.1113
     39 H12        11.0458    4.5255   -3.4729 H         1 <0>         0.1107
     40 H13         2.7927    5.8554    0.0221 H         1 <0>         0.4196
     41 H14         2.6889    7.5323    0.0314 H         1 <0>         0.4113
@<TRIPOS>BOND
     1    1    6 ar
     2    1    2 ar
     3    1   28 1
     4    2    3 ar
     5    2   29 1
     6    3   10 1
     7    3    4 ar
     8    4    5 ar
     9    4    8 1
    10    5    6 ar
    11    5    7 1
    12    6   30 1
    13    8    9 1
    14    9   10 2
    15    9   11 1
    16   11   12 1
    17   12   20 1
    18   12   13 2
    19   13   14 1
    20   14   19 ar
    21   14   15 ar
    22   15   16 ar
    23   15   27 1
    24   16   17 ar
    25   17   18 ar
    26   17   31 1
    27   18   19 ar
    28   19   20 1
    29   20   21 1
    30   21   22 1
    31   21   32 1
    32   21   33 1
    33   22   23 1
    34   22   34 1
    35   22   35 1
    36   23   24 1
    37   23   36 1
    38   23   37 1
    39   24   25 1
    40   24   38 1
    41   24   39 1
    42   25   26 3
    43   27   40 1
    44   27   41 1
@<TRIPOS>MOLECULE
CHEMBL365700
   48    50     0     0     0
SMALL
USER_CHARGES

@<TRIPOS>ATOM
      1 C1          0.2131    2.0342   -0.2670 C.3       1 <0>        -0.1659
      2 C2          0.0683    0.5126   -0.1989 C.3       1 <0>         0.1383
      3 C3         -1.4156    0.1402   -0.2164 C.3       1 <0>        -0.1630
      4 N1          0.7375   -0.0938   -1.3525 N.am      1 <0>        -0.7240
      5 C4          2.0605   -0.3471   -1.3076 C.2       1 <0>         0.5828
      6 O1          2.6990   -0.0722   -0.3090 O.2       1 <0>        -0.4959
      7 C5          2.7311   -0.9547   -2.4636 C.2       1 <0>         0.0370
      8 C6          4.0805   -1.2773   -2.5607 C.2       1 <0>        -0.0916
      9 C7          4.2856   -1.8378   -3.8423 C.2       1 <0>         0.1205
     10 N2          3.1341   -1.8528   -4.4783 N.2       1 <0>        -0.2208
     11 N3          2.1452   -1.3157   -3.6463 N.pl3     1 <0>        -0.4550
     12 H1          1.2068   -1.2149   -3.8703 H         1 <0>         0.4439
     13 C8          5.5789   -2.3255   -4.3786 C.ar      1 <0>        -0.0404
     14 C9          6.3857   -3.1594   -3.6065 C.ar      1 <0>        -0.0477
     15 C10         7.5889   -3.6118   -4.1082 C.ar      1 <0>        -0.0721
     16 C11         7.9990   -3.2379   -5.3824 C.ar      1 <0>         0.1469
     17 C12         7.2015   -2.4085   -6.1562 C.ar      1 <0>        -0.1629
     18 C13         5.9900   -1.9547   -5.6627 C.ar      1 <0>         0.1586
     19 O2          5.2049   -1.1468   -6.4224 O.3       1 <0>        -0.4803
     20 O3          9.1853   -3.6861   -5.8712 O.3       1 <0>        -0.4836
     21 Cl1         8.5931   -4.6500   -3.1452 Cl        1 <0>        -0.0464
     22 C14         5.1101   -1.0716   -1.5170 C.ar      1 <0>        -0.0521
     23 C15         6.1268   -0.1361   -1.7123 C.ar      1 <0>        -0.0573
     24 C16         7.0838    0.0527   -0.7383 C.ar      1 <0>        -0.1507
     25 C17         7.0372   -0.6872    0.4360 C.ar      1 <0>         0.1349
     26 C18         6.0271   -1.6194    0.6336 C.ar      1 <0>        -0.2050
     27 C19         5.0629   -1.8088   -0.3332 C.ar      1 <0>        -0.0402
     28 O4          7.9823   -0.4988    1.3936 O.3       1 <0>        -0.3172
     29 C20         7.8746   -1.2931    2.5766 C.3       1 <0>         0.0267
     30 H2          1.2702    2.2994   -0.2545 H         1 <0>         0.0626
     31 H3         -0.2430    2.4018   -1.1862 H         1 <0>         0.0574
     32 H4         -0.2848    2.4853    0.5913 H         1 <0>         0.0697
     33 H5          0.5243    0.1449    0.7203 H         1 <0>         0.0933
     34 H6         -1.8717    0.5078   -1.1356 H         1 <0>         0.0620
     35 H7         -1.5188   -0.9438   -0.1679 H         1 <0>         0.0630
     36 H8         -1.9136    0.5913    0.6419 H         1 <0>         0.0773
     37 H9          0.2284   -0.3129   -2.1486 H         1 <0>         0.3948
     38 H10         6.0695   -3.4511   -2.6159 H         1 <0>         0.1453
     39 H11         7.5235   -2.1197   -7.1458 H         1 <0>         0.1501
     40 H12         5.3836   -0.2034   -6.3074 H         1 <0>         0.3943
     41 H13         9.1218   -4.5232   -6.3512 H         1 <0>         0.3982
     42 H14         6.1641    0.4391   -2.6256 H         1 <0>         0.1240
     43 H15         7.8710    0.7766   -0.8888 H         1 <0>         0.1311
     44 H16         5.9943   -2.1936    1.5478 H         1 <0>         0.1280
     45 H17         4.2746   -2.5303   -0.1767 H         1 <0>         0.1191
     46 H18         6.9203   -1.0922    3.0635 H         1 <0>         0.0559
     47 H19         7.9323   -2.3489    2.3119 H         1 <0>         0.0560
     48 H20         8.6890   -1.0441    3.2569 H         1 <0>         0.1000
@<TRIPOS>BOND
     1    1    2 1
     2    1   30 1
     3    1   31 1
     4    1   32 1
     5    2    3 1
     6    2    4 1
     7    2   33 1
     8    3   34 1
     9    3   35 1
    10    3   36 1
    11    4    5 am
    12    4   37 1
    13    5    6 2
    14    5    7 1
    15    7   11 1
    16    7    8 2
    17    8    9 1
    18    8   22 1
    19    9   10 2
    20    9   13 1
    21   10   11 1
    22   11   12 1
    23   13   18 ar
    24   13   14 ar
    25   14   15 ar
    26   14   38 1
    27   15   16 ar
    28   15   21 1
    29   16   17 ar
    30   16   20 1
    31   17   18 ar
    32   17   39 1
    33   18   19 1
    34   19   40 1
    35   20   41 1
    36   22   27 ar
    37   22   23 ar
    38   23   24 ar
    39   23   42 1
    40   24   25 ar
    41   24   43 1
    42   25   26 ar
    43   25   28 1
    44   26   27 ar
    45   26   44 1
    46   27   45 1
    47   28   29 1
    48   29   46 1
    49   29   47 1
    50   29   48 1
@<TRIPOS>MOLECULE
CHEMBL365700__1
   48    50     0     0     0
SMALL
USER_CHARGES

@<TRIPOS>ATOM
      1 C1         -0.0187    1.5258    0.0104 C.3       1 <0>        -0.1650
      2 C2          0.0021   -0.0041    0.0020 C.3       1 <0>         0.1373
      3 C3          0.7182   -0.4975   -1.2568 C.3       1 <0>        -0.1614
      4 N1          0.7106   -0.4894    1.1889 N.am      1 <0>        -0.7162
      5 C4          0.0512   -0.6335    2.3554 C.2       1 <0>         0.6016
      6 O1         -1.1318   -0.3607    2.4228 O.2       1 <0>        -0.5146
      7 C5          0.7649   -1.1223    3.5509 C.2       1 <0>        -0.0029
      8 C6          0.2047   -1.3294    4.8416 C.2       1 <0>        -0.0591
      9 C7          1.2598   -1.7909    5.6203 C.2       1 <0>         0.0576
     10 N2          2.3506   -1.8377    4.8034 N.pl3     1 <0>        -0.3677
     11 N3          2.0377   -1.4533    3.6196 N.2       1 <0>        -0.2477
     12 H1          3.2360   -2.1240    5.0772 H         1 <0>         0.4492
     13 C8          1.2094   -2.1573    7.0499 C.ar      1 <0>        -0.0567
     14 C9          1.9269   -1.4141    7.9893 C.ar      1 <0>        -0.0605
     15 C10         1.8770   -1.7591    9.3235 C.ar      1 <0>        -0.0744
     16 C11         1.1138   -2.8454    9.7367 C.ar      1 <0>         0.1513
     17 C12         0.3984   -3.5892    8.8100 C.ar      1 <0>        -0.1611
     18 C13         0.4370   -3.2481    7.4691 C.ar      1 <0>         0.1688
     19 O2         -0.2682   -3.9723    6.5615 O.3       1 <0>        -0.4776
     20 O3          1.0690   -3.1799   11.0530 O.3       1 <0>        -0.4840
     21 Cl1         2.7700   -0.8348   10.4905 Cl        1 <0>        -0.0448
     22 C14        -1.1966   -1.1025    5.2640 C.ar      1 <0>        -0.0396
     23 C15        -1.4923   -0.1152    6.2042 C.ar      1 <0>        -0.0630
     24 C16        -2.7982    0.0936    6.5948 C.ar      1 <0>        -0.1550
     25 C17        -3.8181   -0.6773    6.0535 C.ar      1 <0>         0.1313
     26 C18        -3.5275   -1.6608    5.1176 C.ar      1 <0>        -0.2066
     27 C19        -2.2246   -1.8716    4.7184 C.ar      1 <0>        -0.0229
     28 O4         -5.1039   -0.4691    6.4411 O.3       1 <0>        -0.3192
     29 C20        -6.1036   -1.2977    5.8444 C.3       1 <0>         0.0273
     30 H2          1.0039    1.9031    0.0027 H         1 <0>         0.0567
     31 H3         -0.5459    1.8868   -0.8726 H         1 <0>         0.0669
     32 H4         -0.5289    1.8773    0.9072 H         1 <0>         0.0616
     33 H5         -1.0205   -0.3814    0.0098 H         1 <0>         0.0902
     34 H6          1.7408   -0.1202   -1.2645 H         1 <0>         0.0616
     35 H7          0.7330   -1.5874   -1.2628 H         1 <0>         0.0621
     36 H8          0.1910   -0.1364   -2.1398 H         1 <0>         0.0744
     37 H9          1.6544   -0.7070    1.1351 H         1 <0>         0.4049
     38 H10         2.5209   -0.5701    7.6712 H         1 <0>         0.1446
     39 H11        -0.1924   -4.4326    9.1355 H         1 <0>         0.1512
     40 H12         0.2217   -4.7167    6.1862 H         1 <0>         0.3949
     41 H13         0.3595   -2.7449   11.5454 H         1 <0>         0.4008
     42 H14        -0.6993    0.4846    6.6259 H         1 <0>         0.1222
     43 H15        -3.0278    0.8575    7.3228 H         1 <0>         0.1289
     44 H16        -4.3234   -2.2586    4.6986 H         1 <0>         0.1264
     45 H17        -1.9998   -2.6338    3.9870 H         1 <0>         0.1181
     46 H18        -6.0966   -1.1546    4.7639 H         1 <0>         0.0560
     47 H19        -5.8940   -2.3424    6.0740 H         1 <0>         0.0550
     48 H20        -7.0827   -1.0280    6.2403 H         1 <0>         0.0991
@<TRIPOS>BOND
     1    1    2 1
     2    1   30 1
     3    1   31 1
     4    1   32 1
     5    2    3 1
     6    2    4 1
     7    2   33 1
     8    3   34 1
     9    3   35 1
    10    3   36 1
    11    4    5 am
    12    4   37 1
    13    5    6 2
    14    5    7 1
    15    7   11 2
    16    7    8 1
    17    8   22 1
    18    8    9 2
    19    9   13 1
    20    9   10 1
    21   10   11 1
    22   10   12 1
    23   13   18 ar
    24   13   14 ar
    25   14   15 ar
    26   14   38 1
    27   15   16 ar
    28   15   21 1
    29   16   17 ar
    30   16   20 1
    31   17   18 ar
    32   17   39 1
    33   18   19 1
    34   19   40 1
    35   20   41 1
    36   22   27 ar
    37   22   23 ar
    38   23   24 ar
    39   23   42 1
    40   24   25 ar
    41   24   43 1
    42   25   26 ar
    43   25   28 1
    44   26   27 ar
    45   26   44 1
    46   27   45 1
    47   28   29 1
    48   29   46 1
    49   29   47 1
    50   29   48 1
@<TRIPOS>MOLECULE
CHEMBL361078
   27    29     0     0     0
SMALL
USER_CHARGES

@<TRIPOS>ATOM
      1 C1          0.0015    1.3829   -0.3901 C.ar      1 <0>        -0.1688
      2 C2          1.1653    2.0917   -0.2955 C.ar      1 <0>        -0.0225
      3 C3          2.3791    1.4192   -0.1508 C.ar      1 <0>        -0.1978
      4 C4          2.4034    0.0161   -0.1026 C.ar      1 <0>         0.1046
      5 C5          1.2131   -0.6915   -0.2007 C.ar      1 <0>        -0.1555
      6 C6          0.0178   -0.0086   -0.3431 C.ar      1 <0>         0.1724
      7 O1         -1.1473   -0.7005   -0.4380 O.3       1 <0>        -0.4901
      8 O2          3.6915   -0.3581    0.0403 O.3       1 <0>        -0.0840
      9 N1          4.5147    0.7898    0.0864 N.2       1 <0>        -0.2502
     10 C7          3.7767    1.8635   -0.0235 C.2       1 <0>         0.1733
     11 C8          4.2568    3.2641   -0.0200 C.ar      1 <0>        -0.0735
     12 C9          3.6199    4.2200    0.7716 C.ar      1 <0>        -0.0268
     13 C10         4.0692    5.5233    0.7728 C.ar      1 <0>        -0.1337
     14 C11         5.1564    5.8887   -0.0135 C.ar      1 <0>         0.1763
     15 C12         5.7950    4.9446   -0.8031 C.ar      1 <0>        -0.1669
     16 C13         5.3545    3.6318   -0.8064 C.ar      1 <0>         0.1801
     17 O3          5.9828    2.7048   -1.5746 O.3       1 <0>        -0.4803
     18 O4          5.5939    7.1747   -0.0083 O.3       1 <0>        -0.4812
     19 Br1         3.2041    6.8179    1.8460 Br        1 <0>        -0.0183
     20 H1         -0.9377    1.9052   -0.4976 H         1 <0>         0.1448
     21 H2          1.1459    3.1708   -0.3330 H         1 <0>         0.1396
     22 H3          1.2197   -1.7709   -0.1651 H         1 <0>         0.1483
     23 H4         -1.3961   -0.9295   -1.3440 H         1 <0>         0.4019
     24 H5          2.7751    3.9392    1.3830 H         1 <0>         0.1493
     25 H6          6.6388    5.2323   -1.4126 H         1 <0>         0.1551
     26 H7          5.6213    2.6239   -2.4678 H         1 <0>         0.4005
     27 H8          6.2671    7.3584    0.6612 H         1 <0>         0.4034
@<TRIPOS>BOND
     1    1    6 ar
     2    1    2 ar
     3    1   20 1
     4    2    3 ar
     5    2   21 1
     6    3   10 1
     7    3    4 ar
     8    4    5 ar
     9    4    8 1
    10    5    6 ar
    11    5   22 1
    12    6    7 1
    13    7   23 1
    14    8    9 1
    15    9   10 2
    16   10   11 1
    17   11   16 ar
    18   11   12 ar
    19   12   13 ar
    20   12   24 1
    21   13   14 ar
    22   13   19 1
    23   14   15 ar
    24   14   18 1
    25   15   16 ar
    26   15   25 1
    27   16   17 1
    28   17   26 1
    29   18   27 1
@<TRIPOS>MOLECULE
CHEMBL386399
   44    47     0     0     0
SMALL
USER_CHARGES

@<TRIPOS>ATOM
      1 C1         -0.0187    1.5258    0.0104 C.3       1 <0>        -0.1531
      2 C2          0.0021   -0.0041    0.0020 C.3       1 <0>        -0.1198
      3 C3          0.7421   -0.5109    1.2415 C.3       1 <0>        -0.1379
      4 C4          0.7628   -2.0407    1.2331 C.3       1 <0>         0.1056
      5 N1          1.4714   -2.5260    2.4200 N.pl3     1 <0>        -0.4487
      6 C5          2.8206   -2.7745    2.5180 C.ar      1 <0>         0.3191
      7 C6          3.0415   -3.2207    3.8315 C.ar      1 <0>        -0.1085
      8 C7          4.3537   -3.5506    4.2080 C.ar      1 <0>         0.5160
      9 N2          5.3222   -3.4256    3.3061 N.ar      1 <0>        -0.5929
     10 C8          5.0659   -3.0017    2.0823 C.ar      1 <0>         0.3700
     11 N3          3.8517   -2.6809    1.6857 N.ar      1 <0>        -0.5591
     12 N4          4.6324   -3.9958    5.4900 N.pl3     1 <0>        -0.8146
     13 N5          1.8415   -3.2244    4.4633 N.2       1 <0>        -0.3973
     14 C9          0.9136   -2.8099    3.6369 C.2       1 <0>         0.2005
     15 S1         -0.7961   -2.6475    4.0312 S.3       1 <0>         0.2735
     16 C10        -0.8948   -3.1527    5.7163 C.2       1 <0>         0.0831
     17 N6          0.0688   -3.5540    6.5145 N.2       1 <0>        -0.4464
     18 C11        -0.1547   -3.9146    7.7967 C.ar      1 <0>         0.1172
     19 C12         0.7869   -4.3622    8.7542 C.ar      1 <0>        -0.0910
     20 C13         0.3937   -4.6928   10.0244 C.ar      1 <0>        -0.0711
     21 C14        -0.9328   -4.6025   10.4201 C.ar      1 <0>        -0.1868
     22 C15        -1.8840   -4.1673    9.5087 C.ar      1 <0>         0.1832
     23 C16        -1.4957   -3.8339    8.2308 C.ar      1 <0>        -0.1785
     24 S2         -2.3298   -3.2425    6.7779 S.3       1 <0>         0.0876
     25 O1         -3.1899   -4.0715    9.8747 O.3       1 <0>        -0.3127
     26 C17        -3.5157   -4.4360   11.2175 C.3       1 <0>         0.0253
     27 H1          1.0039    1.9031    0.0027 H         1 <0>         0.0551
     28 H2         -0.5459    1.8868   -0.8726 H         1 <0>         0.0587
     29 H3         -0.5289    1.8773    0.9072 H         1 <0>         0.0557
     30 H4         -1.0205   -0.3814    0.0098 H         1 <0>         0.0675
     31 H5          0.5123   -0.3556   -0.8948 H         1 <0>         0.0679
     32 H6          1.7647   -0.1336    1.2338 H         1 <0>         0.0745
     33 H7          0.2319   -0.1594    2.1383 H         1 <0>         0.0722
     34 H8         -0.2598   -2.4180    1.2409 H         1 <0>         0.0963
     35 H9          1.2730   -2.3923    0.3363 H         1 <0>         0.1062
     36 H10         5.8822   -2.9146    1.3806 H         1 <0>         0.2068
     37 H11         3.9172   -4.0827    6.1395 H         1 <0>         0.4200
     38 H12         5.5428   -4.2207    5.7382 H         1 <0>         0.4109
     39 H13         1.8283   -4.4443    8.4800 H         1 <0>         0.1355
     40 H14         1.1338   -5.0320   10.7341 H         1 <0>         0.1392
     41 H15        -1.2218   -4.8684   11.4262 H         1 <0>         0.1447
     42 H16        -3.2390   -5.4762   11.3890 H         1 <0>         0.0605
     43 H17        -2.9697   -3.7958   11.9104 H         1 <0>         0.0604
     44 H18        -4.5870   -4.3139   11.3774 H         1 <0>         0.1053
@<TRIPOS>BOND
     1    1    2 1
     2    1   27 1
     3    1   28 1
     4    1   29 1
     5    2    3 1
     6    2   30 1
     7    2   31 1
     8    3    4 1
     9    3   32 1
    10    3   33 1
    11    4    5 1
    12    4   34 1
    13    4   35 1
    14    5   14 1
    15    5    6 1
    16    6   11 ar
    17    6    7 ar
    18    7    8 ar
    19    7   13 1
    20    8    9 ar
    21    8   12 1
    22    9   10 ar
    23   10   11 ar
    24   10   36 1
    25   12   37 1
    26   12   38 1
    27   13   14 2
    28   14   15 1
    29   15   16 1
    30   16   24 1
    31   16   17 2
    32   17   18 1
    33   18   23 ar
    34   18   19 ar
    35   19   20 ar
    36   19   39 1
    37   20   21 ar
    38   20   40 1
    39   21   22 ar
    40   21   41 1
    41   22   23 ar
    42   22   25 1
    43   23   24 1
    44   25   26 1
    45   26   42 1
    46   26   43 1
    47   26   44 1
@<TRIPOS>MOLECULE
CHEMBL511439
   77    78     0     0     0
SMALL
USER_CHARGES

@<TRIPOS>ATOM
      1 C1         -0.0187    1.5280    0.0104 C.3       1 <0>        -0.1421
      2 C2          0.0021   -0.0041    0.0020 C.3       1 <0>        -0.0836
      3 H1          0.5110   -0.3532   -0.8925 H         1 <0>         0.0742
      4 C3         -1.4368   -0.5285    0.0256 C.3       1 <0>        -0.0760
      5 C4         -2.0981   -0.2428   -1.2975 C.ar      1 <0>        -0.0737
      6 C5         -1.3707   -0.4144   -2.4618 C.ar      1 <0>        -0.1264
      7 C6         -1.9541   -0.1771   -3.6992 C.ar      1 <0>         0.1560
      8 C7         -3.2716    0.2500   -3.7672 C.ar      1 <0>        -0.1458
      9 C8         -3.9964    0.4346   -2.6059 C.ar      1 <0>        -0.1152
     10 C9         -3.4137    0.1867   -1.3685 C.ar      1 <0>         0.0793
     11 O1         -4.1380    0.3641   -0.2319 O.3       1 <0>        -0.4942
     12 N1         -1.1959   -0.3843   -4.8632 N.am      1 <0>        -0.6704
     13 C10        -0.0537   -1.0651   -4.7888 C.2       1 <0>         0.5530
     14 O2          0.0898   -1.8743   -3.8911 O.2       1 <0>        -0.5146
     15 C11         1.0721   -0.9468   -5.7082 C.2       1 <0>        -0.2019
     16 C12         2.2475   -1.4986   -5.3127 C.2       1 <0>        -0.0093
     17 C13         3.4461   -1.5056   -6.1305 C.2       1 <0>        -0.1039
     18 C14         4.6029   -2.0094   -5.7108 C.2       1 <0>        -0.1547
     19 C15         4.8220   -2.6092   -4.3548 C.3       1 <0>         0.1255
     20 H2          5.7006   -3.2743   -4.4195 H         1 <0>         0.0835
     21 C16         5.1274   -1.5250   -3.3264 C.3       1 <0>         0.1573
     22 H3          6.1341   -1.1348   -3.5103 H         1 <0>         0.1001
     23 C17         5.0881   -2.1028   -1.9294 C.2       1 <0>        -0.1569
     24 C18         4.0285   -1.9235   -1.1844 C.2       1 <0>        -0.0964
     25 C19         3.9123   -2.4489    0.2198 C.3       1 <0>        -0.0894
     26 H4          4.9050   -2.4925    0.6847 H         1 <0>         0.0745
     27 C20         3.0566   -1.4959    1.0559 C.3       1 <0>         0.1181
     28 H5          3.3212   -1.6165    2.1115 H         1 <0>         0.0618
     29 C21         1.5646   -1.7543    0.8817 C.3       1 <0>         0.1023
     30 H6          1.3432   -2.0406   -0.1435 H         1 <0>         0.0724
     31 C22         0.7600   -0.4998    1.2342 C.3       1 <0>        -0.1365
     32 O3          1.1497   -2.7977    1.7721 O.3       1 <0>        -0.3826
     33 C23         0.0538   -3.5753    1.2857 C.3       1 <0>         0.0275
     34 O4          3.3637   -0.1509    0.6671 O.3       1 <0>        -0.5543
     35 C24         3.3194   -3.8551    0.2023 C.3       1 <0>        -0.1334
     36 C25         6.2852   -2.8705   -1.4312 C.3       1 <0>        -0.1121
     37 O5          4.1906   -0.4572   -3.4360 O.3       1 <0>        -0.3407
     38 C26         4.6239    0.7727   -3.1008 C.2       1 <0>         0.6539
     39 O6          5.7684    0.9324   -2.7253 O.2       1 <0>        -0.5718
     40 N2          3.7880    1.8269   -3.1819 N.am      1 <0>        -0.8242
     41 O7          3.7142   -3.3994   -3.9442 O.3       1 <0>        -0.3552
     42 C27         3.8054   -4.7726   -4.3287 C.3       1 <0>         0.0303
     43 C28         0.9351   -0.2485   -7.0281 C.3       1 <0>        -0.1134
     44 H7          1.0039    1.9053    0.0027 H         1 <0>         0.0585
     45 H8         -0.5459    1.8891   -0.8726 H         1 <0>         0.0493
     46 H9         -0.5289    1.8795    0.9072 H         1 <0>         0.0512
     47 H10        -1.4309   -1.6061    0.2046 H         1 <0>         0.0774
     48 H11        -1.9899   -0.0363    0.8268 H         1 <0>         0.0767
     49 H12        -0.3358   -0.7142   -2.3922 H         1 <0>         0.1482
     50 H13        -3.7253    0.4381   -4.7286 H         1 <0>         0.1281
     51 H14        -5.0206    0.7746   -2.6583 H         1 <0>         0.1314
     52 H15        -4.0759    1.2549    0.1392 H         1 <0>         0.3852
     53 H16        -1.5183   -0.0310   -5.7184 H         1 <0>         0.4125
     54 H17         2.2582   -1.9343   -4.3169 H         1 <0>         0.1542
     55 H18         3.4203   -1.0839   -7.1353 H         1 <0>         0.1164
     56 H19         5.4456   -1.9813   -6.4040 H         1 <0>         0.1226
     57 H20         3.1840   -1.3754   -1.6003 H         1 <0>         0.1145
     58 H21         1.4188    0.2838    1.6007 H         1 <0>         0.0860
     59 H22         0.0396   -0.7508    2.0168 H         1 <0>         0.0681
     60 H23        -0.1996   -4.3431    2.0167 H         1 <0>         0.0859
     61 H24        -0.8082   -2.9277    1.1252 H         1 <0>         0.0453
     62 H25         0.3334   -4.0481    0.3443 H         1 <0>         0.0435
     63 H26         4.2901    0.0942    0.7970 H         1 <0>         0.3791
     64 H27         3.9664   -4.5151   -0.3756 H         1 <0>         0.0555
     65 H28         3.2386   -4.2281    1.2233 H         1 <0>         0.0627
     66 H29         2.3296   -3.8264   -0.2534 H         1 <0>         0.0574
     67 H30         6.9770   -2.1862   -0.9400 H         1 <0>         0.0674
     68 H31         5.9596   -3.6301   -0.7205 H         1 <0>         0.0673
     69 H32         6.7849   -3.3505   -2.2725 H         1 <0>         0.0584
     70 H33         2.8743    1.6995   -3.4817 H         1 <0>         0.4061
     71 H34         4.1001    2.7130   -2.9404 H         1 <0>         0.4250
     72 H35         4.6978   -5.2153   -3.8863 H         1 <0>         0.0430
     73 H36         2.9226   -5.3075   -3.9784 H         1 <0>         0.0884
     74 H37         3.8653   -4.8426   -5.4148 H         1 <0>         0.0411
     75 H38         1.1697    0.8089   -6.9058 H         1 <0>         0.0710
     76 H39         1.6234   -0.6925   -7.7473 H         1 <0>         0.0710
     77 H40        -0.0874   -0.3543   -7.3908 H         1 <0>         0.0605
@<TRIPOS>BOND
     1    1    2 1
     2    1   44 1
     3    1   45 1
     4    1   46 1
     5    2    3 1
     6    2   31 1
     7    2    4 1
     8    4    5 1
     9    4   47 1
    10    4   48 1
    11    5   10 ar
    12    5    6 ar
    13    6    7 ar
    14    6   49 1
    15    7    8 ar
    16    7   12 1
    17    8    9 ar
    18    8   50 1
    19    9   10 ar
    20    9   51 1
    21   10   11 1
    22   11   52 1
    23   12   13 am
    24   12   53 1
    25   13   14 2
    26   13   15 1
    27   15   16 2
    28   15   43 1
    29   16   17 1
    30   16   54 1
    31   17   18 2
    32   17   55 1
    33   18   19 1
    34   18   56 1
    35   19   20 1
    36   19   21 1
    37   19   41 1
    38   21   22 1
    39   21   23 1
    40   21   37 1
    41   23   24 2
    42   23   36 1
    43   24   25 1
    44   24   57 1
    45   25   26 1
    46   25   27 1
    47   25   35 1
    48   27   28 1
    49   27   29 1
    50   27   34 1
    51   29   30 1
    52   29   31 1
    53   29   32 1
    54   31   58 1
    55   31   59 1
    56   32   33 1
    57   33   60 1
    58   33   61 1
    59   33   62 1
    60   34   63 1
    61   35   64 1
    62   35   65 1
    63   35   66 1
    64   36   67 1
    65   36   68 1
    66   36   69 1
    67   37   38 1
    68   38   39 2
    69   38   40 am
    70   40   70 1
    71   40   71 1
    72   41   42 1
    73   42   72 1
    74   42   73 1
    75   42   74 1
    76   43   75 1
    77   43   76 1
    78   43   77 1
@<TRIPOS>MOLECULE
CHEMBL200255
   43    45     0     0     0
SMALL
USER_CHARGES

@<TRIPOS>ATOM
      1 C1         -0.4285    1.6254    0.1322 C.ar      1 <0>        -0.1212
      2 C2          0.6307    2.5136    0.1362 C.ar      1 <0>        -0.0185
      3 C3          1.9265    2.0446    0.0279 C.ar      1 <0>        -0.6692
      4 C4          2.1631    0.6872   -0.0840 C.ar      1 <0>        -0.0187
      5 C5          1.1040   -0.2011   -0.0872 C.ar      1 <0>        -0.1216
      6 C6         -0.1919    0.2681    0.0198 C.ar      1 <0>        -0.0499
      7 C7         -1.3466   -0.7003    0.0158 C.3       1 <0>         0.1559
      8 N1         -1.8000   -0.9140   -1.3608 N.am      1 <0>        -0.7281
      9 C8         -2.8294   -1.7476   -1.6095 C.2       1 <0>         0.5940
     10 O1         -3.3819   -2.3225   -0.6911 O.2       1 <0>        -0.5257
     11 C9         -3.2851   -1.9624   -2.9930 C.2       1 <0>        -0.2838
     12 C10        -2.6945   -1.4788   -4.1427 C.2       1 <0>         0.1111
     13 N2         -3.4203   -1.9016   -5.1882 N.pl3     1 <0>        -0.4587
     14 H1         -3.2271   -1.7052   -6.1182 H         1 <0>         0.4477
     15 N3         -4.4970   -2.6687   -4.7346 N.2       1 <0>        -0.2527
     16 C11        -4.4529   -2.7379   -3.4231 C.2       1 <0>         0.1736
     17 C12        -5.4047   -3.4587   -2.5454 C.ar      1 <0>        -0.0422
     18 C13        -6.0057   -2.7985   -1.4746 C.ar      1 <0>        -0.0200
     19 C14        -6.8913   -3.4721   -0.6592 C.ar      1 <0>        -0.0743
     20 C15        -7.1867   -4.8085   -0.9022 C.ar      1 <0>         0.1481
     21 C16        -6.5926   -5.4719   -1.9651 C.ar      1 <0>        -0.1671
     22 C17        -5.7072   -4.8018   -2.7924 C.ar      1 <0>         0.1588
     23 O2         -5.1291   -5.4490   -3.8376 O.3       1 <0>        -0.4830
     24 O3         -8.0599   -5.4669   -0.0957 O.3       1 <0>        -0.4840
     25 Cl1        -7.6384   -2.6489    0.6742 Cl        1 <0>        -0.0494
     26 S1          3.2765    3.1768    0.0319 S.o2      1 <0>         2.7010
     27 O4          4.3532    2.5274   -0.6300 O.2       1 <0>        -0.9614
     28 O5          2.7591    4.4273   -0.4014 O.2       1 <0>        -0.9612
     29 N4          3.7423    3.3779    1.6082 N.pl3     1 <0>        -1.2494
     30 H2         -1.4406    1.9915    0.2213 H         1 <0>         0.1384
     31 H3          0.4458    3.5741    0.2236 H         1 <0>         0.1466
     32 H4          3.1755    0.3208   -0.1694 H         1 <0>         0.1466
     33 H5          1.2888   -1.2615   -0.1753 H         1 <0>         0.1382
     34 H6         -1.0259   -1.6499    0.4443 H         1 <0>         0.0850
     35 H7         -2.1651   -0.2921    0.6087 H         1 <0>         0.0854
     36 H8         -1.3593   -0.4555   -2.0932 H         1 <0>         0.3988
     37 H9         -1.8053   -0.8676   -4.1918 H         1 <0>         0.1885
     38 H10        -5.7776   -1.7603   -1.2833 H         1 <0>         0.1420
     39 H11        -6.8239   -6.5104   -2.1505 H         1 <0>         0.1491
     40 H12        -4.2933   -5.8829   -3.6179 H         1 <0>         0.3940
     41 H13        -8.9805   -5.4144   -0.3868 H         1 <0>         0.3974
     42 H14         3.2780    2.9033    2.3154 H         1 <0>         0.4173
     43 H15         4.4793    3.9703    1.8244 H         1 <0>         0.4225
@<TRIPOS>BOND
     1    1    6 ar
     2    1    2 ar
     3    1   30 1
     4    2    3 ar
     5    2   31 1
     6    3    4 ar
     7    3   26 1
     8    4    5 ar
     9    4   32 1
    10    5    6 ar
    11    5   33 1
    12    6    7 1
    13    7    8 1
    14    7   34 1
    15    7   35 1
    16    8    9 am
    17    8   36 1
    18    9   10 2
    19    9   11 1
    20   11   16 1
    21   11   12 2
    22   12   13 1
    23   12   37 1
    24   13   14 1
    25   13   15 1
    26   15   16 2
    27   16   17 1
    28   17   22 ar
    29   17   18 ar
    30   18   19 ar
    31   18   38 1
    32   19   20 ar
    33   19   25 1
    34   20   21 ar
    35   20   24 1
    36   21   22 ar
    37   21   39 1
    38   22   23 1
    39   23   40 1
    40   24   41 1
    41   26   27 2
    42   26   28 2
    43   26   29 1
    44   29   42 1
    45   29   43 1
@<TRIPOS>MOLECULE
CHEMBL200255__1
   43    45     0     0     0
SMALL
USER_CHARGES

@<TRIPOS>ATOM
      1 C1         -0.0167    1.3781    0.0096 C.ar      1 <0>        -0.1209
      2 C2          1.1709    2.0855    0.0021 C.ar      1 <0>        -0.0186
      3 C3          2.3773    1.4107   -0.0130 C.ar      1 <0>        -0.6694
      4 C4          2.3960    0.0285   -0.0201 C.ar      1 <0>        -0.0186
      5 C5          1.2085   -0.6789   -0.0117 C.ar      1 <0>        -0.1214
      6 C6          0.0021   -0.0041    0.0020 C.ar      1 <0>        -0.0491
      7 C7         -1.2926   -0.7753    0.0107 C.3       1 <0>         0.1581
      8 N1         -1.7258   -1.0177   -1.3676 N.am      1 <0>        -0.7276
      9 C8         -2.8667   -1.6945   -1.6063 C.2       1 <0>         0.5971
     10 O1         -3.5367   -2.1040   -0.6771 O.2       1 <0>        -0.5254
     11 C9         -3.3014   -1.9378   -2.9894 C.2       1 <0>        -0.2632
     12 C10        -2.6340   -1.5277   -4.1638 C.2       1 <0>         0.0830
     13 N2         -3.3287   -1.9297   -5.1917 N.2       1 <0>        -0.2775
     14 H1         -5.1467   -3.0101   -5.3062 H         1 <0>         0.4460
     15 N3         -4.4653   -2.6109   -4.7430 N.pl3     1 <0>        -0.4536
     16 C11        -4.4492   -2.6235   -3.3906 C.2       1 <0>         0.2033
     17 C12        -5.4555   -3.2415   -2.5071 C.ar      1 <0>        -0.0747
     18 C13        -5.6297   -4.6280   -2.5047 C.ar      1 <0>        -0.0544
     19 C14        -6.5710   -5.2016   -1.6778 C.ar      1 <0>        -0.0776
     20 C15        -7.3496   -4.4043   -0.8449 C.ar      1 <0>         0.1561
     21 C16        -7.1837   -3.0274   -0.8407 C.ar      1 <0>        -0.1636
     22 C17        -6.2369   -2.4408   -1.6625 C.ar      1 <0>         0.1945
     23 O2         -6.0693   -1.0933   -1.6547 O.3       1 <0>        -0.4763
     24 O3         -8.2762   -4.9766   -0.0331 O.3       1 <0>        -0.4843
     25 Cl1        -6.7864   -6.9242   -1.6757 Cl        1 <0>        -0.0460
     26 S1          3.8911    2.3124   -0.0238 S.o2      1 <0>         2.7008
     27 O4          4.8717    1.4529   -0.5884 O.2       1 <0>        -0.9613
     28 O5          3.5973    3.5927   -0.5658 O.2       1 <0>        -0.9613
     29 N4          4.3274    2.5556    1.5551 N.pl3     1 <0>        -1.2496
     30 H2         -0.9591    1.9053    0.0259 H         1 <0>         0.1383
     31 H3          1.1563    3.1654    0.0076 H         1 <0>         0.1464
     32 H4          3.3385   -0.4987   -0.0326 H         1 <0>         0.1463
     33 H5          1.2231   -1.7588   -0.0179 H         1 <0>         0.1380
     34 H6         -1.1443   -1.7285    0.5180 H         1 <0>         0.0826
     35 H7         -2.0551   -0.1993    0.5352 H         1 <0>         0.0838
     36 H8         -1.1916   -0.6912   -2.1085 H         1 <0>         0.4002
     37 H9         -1.7069   -0.9752   -4.2042 H         1 <0>         0.1925
     38 H10        -5.0273   -5.2495   -3.1506 H         1 <0>         0.1433
     39 H11        -7.7905   -2.4128   -0.1923 H         1 <0>         0.1512
     40 H12        -6.6279   -0.6238   -2.2892 H         1 <0>         0.3928
     41 H13        -7.9386   -5.2176    0.8404 H         1 <0>         0.4009
     42 H14         3.7682    2.2150    2.2708 H         1 <0>         0.4171
     43 H15         5.1421    3.0386    1.7642 H         1 <0>         0.4222
@<TRIPOS>BOND
     1    1    6 ar
     2    1    2 ar
     3    1   30 1
     4    2    3 ar
     5    2   31 1
     6    3    4 ar
     7    3   26 1
     8    4    5 ar
     9    4   32 1
    10    5    6 ar
    11    5   33 1
    12    6    7 1
    13    7    8 1
    14    7   34 1
    15    7   35 1
    16    8    9 am
    17    8   36 1
    18    9   10 2
    19    9   11 1
    20   11   12 1
    21   11   16 2
    22   12   13 2
    23   12   37 1
    24   13   15 1
    25   14   15 1
    26   15   16 1
    27   16   17 1
    28   17   22 ar
    29   17   18 ar
    30   18   19 ar
    31   18   38 1
    32   19   20 ar
    33   19   25 1
    34   20   21 ar
    35   20   24 1
    36   21   22 ar
    37   21   39 1
    38   22   23 1
    39   23   40 1
    40   24   41 1
    41   26   27 2
    42   26   28 2
    43   26   29 1
    44   29   42 1
    45   29   43 1
@<TRIPOS>MOLECULE
CHEMBL339231
   77    78     0     0     0
SMALL
NO_CHARGES

@<TRIPOS>ATOM
      1 C1          0.1169    0.5179    0.6218 C.3       1 <0>        -0.1494
      2 C2         -0.0521   -0.9085    0.0934 C.3       1 <0>        -0.0888
      3 H1         -1.1094   -1.1544    0.0456 H         1 <0>         0.1040
      4 C3          0.5977   -1.0193   -1.2845 C.3       1 <0>        -0.1106
      5 C4         -0.3885   -0.6620   -2.3978 C.3       1 <0>         0.1033
      6 H2         -0.0965    0.2965   -2.8391 H         1 <0>         0.0627
      7 C5         -0.3541   -1.7309   -3.4871 C.3       1 <0>         0.1078
      8 H3         -0.5155   -2.7104   -3.0352 H         1 <0>         0.0709
      9 C6         -1.4417   -1.4763   -4.5332 C.3       1 <0>        -0.0860
     10 H4         -2.1156   -0.7025   -4.1857 H         1 <0>         0.0888
     11 C7         -2.1635   -2.7701   -4.8115 C.2       1 <0>        -0.1433
     12 C8         -3.3584   -3.0524   -4.3681 C.2       1 <0>        -0.1044
     13 C9         -3.9797   -4.3889   -4.7095 C.3       1 <0>         0.1546
     14 H5         -4.0521   -4.4859   -5.7926 H         1 <0>         0.1042
     15 C10        -3.1016   -5.5112   -4.1535 C.3       1 <0>         0.1220
     16 H6         -2.4415   -5.8635   -4.9604 H         1 <0>         0.0804
     17 C11        -3.9563   -6.6614   -3.6987 C.2       1 <0>        -0.1555
     18 C12        -4.3087   -6.8592   -2.4298 C.2       1 <0>        -0.1029
     19 C13        -3.8986   -5.9558   -1.3728 C.2       1 <0>        -0.0083
     20 C14        -3.5397   -6.3235   -0.1290 C.2       1 <0>        -0.1784
     21 C15        -3.1800   -5.2733    0.8202 C.2       1 <0>         0.5115
     22 O1         -3.5179   -4.1388    0.5218 O.2       1 <0>        -0.4862
     23 N1         -2.5527   -5.4598    1.9779 N.2       1 <0>        -0.5031
     24 C16        -1.6257   -4.6239    2.3953 C.2       1 <0>         0.2591
     25 C17        -1.0373   -4.7995    3.6633 C.2       1 <0>        -0.2359
     26 C18        -0.1156   -3.9169    4.1487 C.2       1 <0>         0.2187
     27 O2          0.4507   -4.1469    5.3550 O.3       1 <0>        -0.4466
     28 C19         0.2588   -2.7146    3.3938 C.2       1 <0>         0.1536
     29 C20        -0.4096   -2.3431    2.1048 C.3       1 <0>        -0.0790
     30 C21         0.6193   -1.8770    1.0768 C.3       1 <0>        -0.1026
     31 C22        -1.1715   -3.5058    1.5322 C.2       1 <0>         0.3430
     32 O3         -1.3755   -3.5247    0.3425 O.2       1 <0>        -0.3583
     33 N2          1.1563   -1.9751    3.8472 N.1       1 <0>        -0.2745
     34 C23        -3.4865   -7.7613    0.2994 C.3       1 <0>        -0.1047
     35 O4         -2.2804   -5.0248   -3.0973 O.3       1 <0>        -0.3457
     36 C24        -1.0302   -5.7055   -2.9725 C.3       1 <0>         0.0320
     37 O5         -5.2853   -4.4645   -4.1335 O.3       1 <0>        -0.3412
     38 C25        -6.3116   -4.0243   -4.8857 C.2       1 <0>         0.6499
     39 O6         -6.1043   -3.5879   -6.0006 O.2       1 <0>        -0.5719
     40 N3         -7.5688   -4.0678   -4.4020 N.am      1 <0>        -0.8261
     41 C26        -4.1369   -2.0779   -3.5241 C.3       1 <0>        -0.1083
     42 C27        -0.7769   -0.9941   -5.8315 C.3       1 <0>        -0.1401
     43 O7          0.9260   -1.7140   -4.1233 O.3       1 <0>        -0.5631
     44 O8         -1.7144   -0.5506   -1.8868 O.3       1 <0>        -0.3558
     45 C28        -2.2715    0.7607   -1.9971 C.3       1 <0>         0.0244
     46 H7          1.1782    0.7418    0.7303 H         1 <0>         0.0546
     47 H8         -0.3328    1.2208   -0.0795 H         1 <0>         0.0554
     48 H9         -0.3742    0.6070    1.5908 H         1 <0>         0.0516
     49 H10         1.4570   -0.3431   -1.3310 H         1 <0>         0.0667
     50 H11         0.9561   -2.0425   -1.4319 H         1 <0>         0.0694
     51 H12        -1.6429   -3.5114   -5.4182 H         1 <0>         0.0955
     52 H13        -4.3133   -7.3744   -4.4385 H         1 <0>         0.1216
     53 H14        -4.9504   -7.7103   -2.1978 H         1 <0>         0.1222
     54 H15        -3.8874   -4.8764   -1.5795 H         1 <0>         0.1441
     55 H16        -1.3255   -5.6536    4.2592 H         1 <0>         0.1640
     56 H17         1.0033   -2.7358    0.5274 H         1 <0>         0.0774
     57 H18         1.4372   -1.3635    1.5788 H         1 <0>         0.0844
     58 H19        -1.1197   -1.5345    2.2984 H         1 <0>         0.1442
     59 H20        -2.4918   -8.1620    0.1042 H         1 <0>         0.0638
     60 H21        -3.7037   -7.8312    1.3652 H         1 <0>         0.0696
     61 H22        -4.2255   -8.3348   -0.2603 H         1 <0>         0.0639
     62 H23        -1.2100   -6.7631   -2.7793 H         1 <0>         0.0401
     63 H24        -0.4632   -5.5964   -3.8970 H         1 <0>         0.0400
     64 H25        -0.4637   -5.2764   -2.1461 H         1 <0>         0.0856
     65 H26        -7.7343   -4.4162   -3.5119 H         1 <0>         0.4091
     66 H27        -8.3082   -3.7507   -4.9439 H         1 <0>         0.4258
     67 H28        -3.5471   -1.1733   -3.3763 H         1 <0>         0.0733
     68 H29        -5.0698   -1.8251   -4.0282 H         1 <0>         0.0490
     69 H30        -4.3574   -2.5300   -2.5571 H         1 <0>         0.0727
     70 H31        -0.0886   -1.7582   -6.1927 H         1 <0>         0.0535
     71 H32        -1.5426   -0.8093   -6.5849 H         1 <0>         0.0536
     72 H33        -0.2277   -0.0727   -5.6379 H         1 <0>         0.0598
     73 H34         1.0232   -2.3681   -4.8288 H         1 <0>         0.3786
     74 H35        -1.6038    1.4802   -1.5232 H         1 <0>         0.0441
     75 H36        -2.3931    1.0164   -3.0497 H         1 <0>         0.0397
     76 H37        -3.2426    0.7857   -1.5026 H         1 <0>         0.0866
     77 H38         0.1391   -4.9533    5.7884 H         1 <0>         0.4198
@<TRIPOS>BOND
     1    1    2 1
     2    1   46 1
     3    1   47 1
     4    1   48 1
     5    2    3 1
     6    2   30 1
     7    2    4 1
     8    4    5 1
     9    4   49 1
    10    4   50 1
    11    5    6 1
    12    5    7 1
    13    5   44 1
    14    7    8 1
    15    7    9 1
    16    7   43 1
    17    9   10 1
    18    9   11 1
    19    9   42 1
    20   11   12 2
    21   11   51 1
    22   12   13 1
    23   12   41 1
    24   13   14 1
    25   13   15 1
    26   13   37 1
    27   15   16 1
    28   15   17 1
    29   15   35 1
    30   17   18 2
    31   17   52 1
    32   18   19 1
    33   18   53 1
    34   19   20 2
    35   19   54 1
    36   20   21 1
    37   20   34 1
    38   21   22 2
    39   21   23 1
    40   23   24 2
    41   24   31 1
    42   24   25 1
    43   25   26 2
    44   25   55 1
    45   26   27 1
    46   26   28 1
    47   27   77 1
    48   28   33 2
    49   28   29 1
    50   29   30 1
    51   29   31 1
    52   29   58 1
    53   30   56 1
    54   30   57 1
    55   31   32 2
    56   34   59 1
    57   34   60 1
    58   34   61 1
    59   35   36 1
    60   36   62 1
    61   36   63 1
    62   36   64 1
    63   37   38 1
    64   38   39 2
    65   38   40 am
    66   40   65 1
    67   40   66 1
    68   41   67 1
    69   41   68 1
    70   41   69 1
    71   42   70 1
    72   42   71 1
    73   42   72 1
    74   43   73 1
    75   44   45 1
    76   45   74 1
    77   45   75 1
    78   45   76 1
@<TRIPOS>MOLECULE
CHEMBL339231__1
   78    79     0     0     0
SMALL
NO_CHARGES

@<TRIPOS>ATOM
      1 C1          0.1194    0.4987    0.6288 C.3       1 <0>        -0.1466
      2 C2         -0.0543   -0.9245    0.0912 C.3       1 <0>        -0.0882
      3 H1         -1.1137   -1.1640    0.0424 H         1 <0>         0.1004
      4 C3          0.5912   -1.0208   -1.2882 C.3       1 <0>        -0.1099
      5 C4         -0.3989   -0.6496   -2.3925 C.3       1 <0>         0.1032
      6 H2         -0.1101    0.3161   -2.8163 H         1 <0>         0.0609
      7 C5         -0.3569   -1.6997   -3.5006 C.3       1 <0>         0.1080
      8 H3         -0.5137   -2.6866   -3.0655 H         1 <0>         0.0713
      9 C6         -1.4392   -1.4356   -4.5517 C.3       1 <0>        -0.0860
     10 H4         -2.1155   -0.6636   -4.2050 H         1 <0>         0.0886
     11 C7         -2.1589   -2.7235   -4.8519 C.2       1 <0>        -0.1420
     12 C8         -3.3538   -3.0113   -4.4097 C.2       1 <0>        -0.1057
     13 C9         -3.9880   -4.3380   -4.7654 C.3       1 <0>         0.1553
     14 H5         -4.0709   -4.4102   -5.8524 H         1 <0>         0.1039
     15 C10        -3.1143   -5.4785   -4.2461 C.3       1 <0>         0.1220
     16 H6         -2.4784   -5.8245   -5.0759 H         1 <0>         0.0794
     17 C11        -3.9594   -6.6364   -3.7939 C.2       1 <0>        -0.1549
     18 C12        -4.2984   -6.8486   -2.5257 C.2       1 <0>        -0.1040
     19 C13        -3.9108   -5.9407   -1.4621 C.2       1 <0>        -0.0054
     20 C14        -3.5577   -6.3355   -0.2205 C.2       1 <0>        -0.1772
     21 C15        -3.1803   -5.3131    0.7475 C.2       1 <0>         0.5122
     22 O1         -3.5054   -4.1688    0.4641 O.2       1 <0>        -0.4893
     23 N1         -2.5556   -5.5069    1.9052 N.2       1 <0>        -0.5086
     24 C16        -1.6353   -4.6714    2.3435 C.2       1 <0>         0.2602
     25 C17        -1.0632   -4.8501    3.6206 C.2       1 <0>        -0.2328
     26 C18        -0.1499   -3.9697    4.1197 C.2       1 <0>         0.1620
     27 O2          0.4048   -4.2018    5.3315 O.3       1 <0>        -0.4615
     28 C19         0.2337   -2.7601    3.3796 C.2       1 <0>         0.2255
     29 C20        -0.4210   -2.3830    2.0840 C.3       1 <0>        -0.0719
     30 C21         0.6122   -1.9010    1.0688 C.3       1 <0>        -0.0942
     31 C22        -1.1701   -3.5462    1.4946 C.2       1 <0>         0.3415
     32 O3         -1.3537   -3.5618    0.3022 O.2       1 <0>        -0.3632
     33 N2          1.1513   -1.9933    3.8681 N.2       1 <0>        -0.6098
     34 C23        -3.5488   -7.7863    0.1678 C.3       1 <0>        -0.1053
     35 O4         -2.2613   -5.0207   -3.2010 O.3       1 <0>        -0.3455
     36 C24        -1.0189   -5.7216   -3.1157 C.3       1 <0>         0.0322
     37 O5         -5.2890   -4.4135   -4.1801 O.3       1 <0>        -0.3410
     38 C25        -6.3184   -3.9551   -4.9170 C.2       1 <0>         0.6501
     39 O6         -6.1172   -3.5032   -6.0269 O.2       1 <0>        -0.5719
     40 N3         -7.5719   -3.9975   -4.4237 N.am      1 <0>        -0.8261
     41 C26        -4.1217   -2.0381   -3.5544 C.3       1 <0>        -0.1095
     42 C27        -0.7588   -0.9397   -5.8378 C.3       1 <0>        -0.1403
     43 O7          0.9250   -1.6602   -4.1336 O.3       1 <0>        -0.5634
     44 O8         -1.7251   -0.5467   -1.8774 O.3       1 <0>        -0.3552
     45 C28        -2.2868    0.7636   -1.9757 C.3       1 <0>         0.0248
     46 H7          1.1816    0.7236    0.7252 H         1 <0>         0.0533
     47 H8         -0.3407    1.2063   -0.0609 H         1 <0>         0.0506
     48 H9         -0.3591    0.5793    1.6048 H         1 <0>         0.0522
     49 H10         1.4518   -0.3448   -1.3360 H         1 <0>         0.0655
     50 H11         0.9449   -2.0427   -1.4520 H         1 <0>         0.0679
     51 H12        -1.6453   -3.4546   -5.4781 H         1 <0>         0.0955
     52 H13        -4.3164   -7.3431   -4.5404 H         1 <0>         0.1214
     53 H14        -4.8935   -7.7324   -2.2850 H         1 <0>         0.1218
     54 H15        -3.9282   -4.8625   -1.6555 H         1 <0>         0.1431
     55 H16        -1.3598   -5.7057    4.2099 H         1 <0>         0.1551
     56 H17         1.0026   -2.7535    0.5106 H         1 <0>         0.0675
     57 H18         1.4320   -1.3971    1.5795 H         1 <0>         0.0924
     58 H19         1.5750   -2.2201    4.7107 H         1 <0>         0.3582
     59 H20        -1.1418   -1.5848    2.2783 H         1 <0>         0.1377
     60 H21        -2.5673   -8.2122   -0.0405 H         1 <0>         0.0636
     61 H22        -3.7667   -7.8790    1.2318 H         1 <0>         0.0689
     62 H23        -4.3060   -8.3207   -0.4060 H         1 <0>         0.0645
     63 H24        -0.4272   -5.3139   -2.2960 H         1 <0>         0.0860
     64 H25        -1.2101   -6.7793   -2.9347 H         1 <0>         0.0397
     65 H26        -0.4716   -5.6061   -4.0513 H         1 <0>         0.0399
     66 H27        -7.7324   -4.3582   -3.5377 H         1 <0>         0.4090
     67 H28        -8.3135   -3.6672   -4.9546 H         1 <0>         0.4258
     68 H29        -3.5251   -1.1386   -3.4025 H         1 <0>         0.0742
     69 H30        -5.0552   -1.7752   -4.0519 H         1 <0>         0.0487
     70 H31        -4.3405   -2.4962   -2.5898 H         1 <0>         0.0724
     71 H32        -0.0668   -1.7003   -6.1992 H         1 <0>         0.0534
     72 H33        -1.5157   -0.7464   -6.5980 H         1 <0>         0.0529
     73 H34        -0.2115   -0.0207   -5.6281 H         1 <0>         0.0602
     74 H35         1.0295   -2.3006   -4.8506 H         1 <0>         0.3781
     75 H36        -3.2557    0.7819   -1.4767 H         1 <0>         0.0860
     76 H37        -1.6192    1.4818   -1.4996 H         1 <0>         0.0442
     77 H38        -2.4140    1.0265   -3.0259 H         1 <0>         0.0386
     78 H39         0.0909   -5.0102    5.7594 H         1 <0>         0.4199
@<TRIPOS>BOND
     1    1    2 1
     2    1   46 1
     3    1   47 1
     4    1   48 1
     5    2    3 1
     6    2   30 1
     7    2    4 1
     8    4    5 1
     9    4   49 1
    10    4   50 1
    11    5    6 1
    12    5    7 1
    13    5   44 1
    14    7    8 1
    15    7    9 1
    16    7   43 1
    17    9   10 1
    18    9   11 1
    19    9   42 1
    20   11   12 2
    21   11   51 1
    22   12   13 1
    23   12   41 1
    24   13   14 1
    25   13   15 1
    26   13   37 1
    27   15   16 1
    28   15   17 1
    29   15   35 1
    30   17   18 2
    31   17   52 1
    32   18   19 1
    33   18   53 1
    34   19   20 2
    35   19   54 1
    36   20   21 1
    37   20   34 1
    38   21   22 2
    39   21   23 1
    40   23   24 2
    41   24   31 1
    42   24   25 1
    43   25   26 2
    44   25   55 1
    45   26   27 1
    46   26   28 1
    47   27   78 1
    48   28   33 2
    49   28   29 1
    50   29   30 1
    51   29   31 1
    52   29   59 1
    53   30   56 1
    54   30   57 1
    55   31   32 2
    56   33   58 1
    57   34   60 1
    58   34   61 1
    59   34   62 1
    60   35   36 1
    61   36   63 1
    62   36   64 1
    63   36   65 1
    64   37   38 1
    65   38   39 2
    66   38   40 am
    67   40   66 1
    68   40   67 1
    69   41   68 1
    70   41   69 1
    71   41   70 1
    72   42   71 1
    73   42   72 1
    74   42   73 1
    75   43   74 1
    76   44   45 1
    77   45   75 1
    78   45   76 1
    79   45   77 1
@<TRIPOS>MOLECULE
CHEMBL339231__2
   78    79     0     0     0
SMALL
NO_CHARGES

@<TRIPOS>ATOM
      1 C1          0.1194    0.4990    0.6287 C.3       1 <0>        -0.1517
      2 C2         -0.0543   -0.9243    0.0912 C.3       1 <0>        -0.0882
      3 H1         -1.1137   -1.1638    0.0425 H         1 <0>         0.1051
      4 C3          0.5912   -1.0206   -1.2882 C.3       1 <0>        -0.1103
      5 C4         -0.3989   -0.6496   -2.3925 C.3       1 <0>         0.1032
      6 H2         -0.1102    0.3160   -2.8164 H         1 <0>         0.0617
      7 C5         -0.3568   -1.6998   -3.5005 C.3       1 <0>         0.1079
      8 H3         -0.5136   -2.6867   -3.0653 H         1 <0>         0.0715
      9 C6         -1.4392   -1.4358   -4.5517 C.3       1 <0>        -0.0856
     10 H4         -2.1155   -0.6638   -4.2050 H         1 <0>         0.0884
     11 C7         -2.1588   -2.7238   -4.8517 C.2       1 <0>        -0.1430
     12 C8         -3.3537   -3.0116   -4.4095 C.2       1 <0>        -0.1048
     13 C9         -3.9879   -4.3383   -4.7651 C.3       1 <0>         0.1552
     14 H5         -4.0707   -4.4107   -5.8521 H         1 <0>         0.1041
     15 C10        -3.1141   -5.4788   -4.2456 C.3       1 <0>         0.1223
     16 H6         -2.4782   -5.8248   -5.0755 H         1 <0>         0.0793
     17 C11        -3.9592   -6.6366   -3.7934 C.2       1 <0>        -0.1562
     18 C12        -4.2982   -6.8487   -2.5252 C.2       1 <0>        -0.1029
     19 C13        -3.9106   -5.9408   -1.4616 C.2       1 <0>        -0.0074
     20 C14        -3.5575   -6.3354   -0.2200 C.2       1 <0>        -0.1759
     21 C15        -3.1801   -5.3129    0.7479 C.2       1 <0>         0.5133
     22 O1         -3.5052   -4.1687    0.4644 O.2       1 <0>        -0.4930
     23 N1         -2.5554   -5.5066    1.9056 N.2       1 <0>        -0.5133
     24 C16        -1.6351   -4.6710    2.3438 C.2       1 <0>         0.2657
     25 C17        -1.0630   -4.8496    3.6210 C.2       1 <0>        -0.2538
     26 C18        -0.1497   -3.9691    4.1200 C.2       1 <0>         0.2411
     27 O2          0.4049   -4.2011    5.3318 O.3       1 <0>        -0.4367
     28 C19         0.2338   -2.7596    3.3798 C.2       1 <0>         0.2168
     29 C20        -0.4209   -2.3826    2.0842 C.3       1 <0>        -0.1327
     30 C21         0.6122   -1.9006    1.0689 C.3       1 <0>        -0.1014
     31 C22        -1.1700   -3.5458    1.4948 C.2       1 <0>         0.3454
     32 O3         -1.3535   -3.5616    0.3024 O.2       1 <0>        -0.3661
     33 N2          1.1513   -1.9927    3.8682 N.2       1 <0>        -0.6046
     34 C23        -3.5486   -7.7862    0.1685 C.3       1 <0>        -0.1055
     35 O4         -2.2611   -5.0208   -3.2006 O.3       1 <0>        -0.3457
     36 C24        -1.0187   -5.7216   -3.1152 C.3       1 <0>         0.0324
     37 O5         -5.2889   -4.4139   -4.1798 O.3       1 <0>        -0.3408
     38 C25        -6.3182   -3.9556   -4.9167 C.2       1 <0>         0.6501
     39 O6         -6.1171   -3.5038   -6.0267 O.2       1 <0>        -0.5721
     40 N3         -7.5717   -3.9979   -4.4234 N.am      1 <0>        -0.8260
     41 C26        -4.1217   -2.0384   -3.5543 C.3       1 <0>        -0.1096
     42 C27        -0.7588   -0.9400   -5.8378 C.3       1 <0>        -0.1405
     43 O7          0.9251   -1.6604   -4.1335 O.3       1 <0>        -0.5639
     44 O8         -1.7251   -0.5467   -1.8774 O.3       1 <0>        -0.3553
     45 C28        -2.2868    0.7636   -1.9757 C.3       1 <0>         0.0246
     46 H7          1.1815    0.7238    0.7253 H         1 <0>         0.0538
     47 H8         -0.3405    1.2065   -0.0612 H         1 <0>         0.0566
     48 H9         -0.3593    0.5797    1.6046 H         1 <0>         0.0505
     49 H10         1.4518   -0.3446   -1.3360 H         1 <0>         0.0662
     50 H11         0.9449   -2.0425   -1.4519 H         1 <0>         0.0693
     51 H12        -1.6452   -3.4550   -5.4778 H         1 <0>         0.0958
     52 H13        -4.3161   -7.3434   -4.5398 H         1 <0>         0.1213
     53 H14        -4.8933   -7.7325   -2.2843 H         1 <0>         0.1218
     54 H15        -3.9281   -4.8626   -1.6551 H         1 <0>         0.1425
     55 H16        -1.3596   -5.7051    4.2103 H         1 <0>         0.1601
     56 H17         1.0027   -2.7532    0.5108 H         1 <0>         0.0777
     57 H18         1.4320   -1.3967    1.5795 H         1 <0>         0.0720
     58 H19         1.4167   -1.1902    3.3924 H         1 <0>         0.3539
     59 H20        -1.1418   -1.5844    2.2784 H         1 <0>         0.1371
     60 H21        -2.5670   -8.2121   -0.0398 H         1 <0>         0.0638
     61 H22        -3.7664   -7.8788    1.2324 H         1 <0>         0.0695
     62 H23        -4.3057   -8.3207   -0.4053 H         1 <0>         0.0641
     63 H24        -0.4270   -5.3138   -2.2956 H         1 <0>         0.0854
     64 H25        -1.2098   -6.7794   -2.9342 H         1 <0>         0.0401
     65 H26        -0.4715   -5.6063   -4.0508 H         1 <0>         0.0396
     66 H27        -7.7323   -4.3586   -3.5373 H         1 <0>         0.4091
     67 H28        -8.3134   -3.6677   -4.9543 H         1 <0>         0.4259
     68 H29        -3.5251   -1.1388   -3.4025 H         1 <0>         0.0736
     69 H30        -5.0552   -1.7755   -4.0518 H         1 <0>         0.0490
     70 H31        -4.3404   -2.4963   -2.5897 H         1 <0>         0.0725
     71 H32        -0.0667   -1.7006   -6.1991 H         1 <0>         0.0536
     72 H33        -1.5157   -0.7468   -6.5980 H         1 <0>         0.0534
     73 H34        -0.2115   -0.0210   -5.6282 H         1 <0>         0.0600
     74 H35         1.0296   -2.3007   -4.8504 H         1 <0>         0.3789
     75 H36        -3.2557    0.7819   -1.4767 H         1 <0>         0.0866
     76 H37        -1.6192    1.4818   -1.4996 H         1 <0>         0.0435
     77 H38        -2.4140    1.0265   -3.0259 H         1 <0>         0.0397
     78 H39         0.0911   -5.0094    5.7598 H         1 <0>         0.4123
@<TRIPOS>BOND
     1    1    2 1
     2    1   46 1
     3    1   47 1
     4    1   48 1
     5    2    3 1
     6    2   30 1
     7    2    4 1
     8    4    5 1
     9    4   49 1
    10    4   50 1
    11    5    6 1
    12    5    7 1
    13    5   44 1
    14    7    8 1
    15    7    9 1
    16    7   43 1
    17    9   10 1
    18    9   11 1
    19    9   42 1
    20   11   12 2
    21   11   51 1
    22   12   13 1
    23   12   41 1
    24   13   14 1
    25   13   15 1
    26   13   37 1
    27   15   16 1
    28   15   17 1
    29   15   35 1
    30   17   18 2
    31   17   52 1
    32   18   19 1
    33   18   53 1
    34   19   20 2
    35   19   54 1
    36   20   21 1
    37   20   34 1
    38   21   22 2
    39   21   23 1
    40   23   24 2
    41   24   31 1
    42   24   25 1
    43   25   26 2
    44   25   55 1
    45   26   27 1
    46   26   28 1
    47   27   78 1
    48   28   33 2
    49   28   29 1
    50   29   30 1
    51   29   31 1
    52   29   59 1
    53   30   56 1
    54   30   57 1
    55   31   32 2
    56   33   58 1
    57   34   60 1
    58   34   61 1
    59   34   62 1
    60   35   36 1
    61   36   63 1
    62   36   64 1
    63   36   65 1
    64   37   38 1
    65   38   39 2
    66   38   40 am
    67   40   66 1
    68   40   67 1
    69   41   68 1
    70   41   69 1
    71   41   70 1
    72   42   71 1
    73   42   72 1
    74   42   73 1
    75   43   74 1
    76   44   45 1
    77   45   75 1
    78   45   76 1
    79   45   77 1
@<TRIPOS>MOLECULE
CHEMBL204734
   46    49     0     0     0
SMALL
USER_CHARGES

@<TRIPOS>ATOM
      1 C1         -0.0187    1.5258    0.0104 C.3       1 <0>        -0.1465
      2 C2          0.0021   -0.0041    0.0020 C.3       1 <0>        -0.0821
      3 C3          0.7074   -0.4901   -1.2379 C.ar      1 <0>        -0.1141
      4 C4          2.0209   -0.9027   -1.1641 C.ar      1 <0>        -0.0664
      5 C5          2.6754   -1.3531   -2.3117 C.ar      1 <0>        -0.0711
      6 C6          1.9927   -1.3835   -3.5352 C.ar      1 <0>         0.1559
      7 C7          0.6747   -0.9670   -3.5976 C.ar      1 <0>        -0.1718
      8 C8          0.0305   -0.5262   -2.4503 C.ar      1 <0>         0.1383
      9 O1         -1.2655   -0.1236   -2.5141 O.3       1 <0>        -0.4925
     10 O2          2.6230   -1.8200   -4.6564 O.3       1 <0>        -0.4732
     11 C9          4.0821   -1.7954   -2.2369 C.2       1 <0>         0.1446
     12 C10         5.1722   -1.1898   -2.8481 C.2       1 <0>        -0.1529
     13 C11         6.3116   -1.9414   -2.5100 C.2       1 <0>         0.0965
     14 N1          5.9426   -2.9353   -1.7466 N.2       1 <0>        -0.2868
     15 N2          4.5583   -2.8725   -1.5500 N.pl3     1 <0>        -0.4691
     16 H1          4.0297   -3.4890   -1.0196 H         1 <0>         0.4393
     17 C12         7.7217   -1.6497   -2.9543 C.3       1 <0>        -0.0740
     18 C13         5.1406    0.0236   -3.6993 C.ar      1 <0>        -0.0030
     19 C14         5.2958    1.2844   -3.1253 C.ar      1 <0>        -0.1020
     20 C15         5.2655    2.4121   -3.9200 C.ar      1 <0>        -0.1215
     21 C16         5.0797    2.2972   -5.2857 C.ar      1 <0>        -0.1137
     22 C17         4.9238    1.0476   -5.8693 C.ar      1 <0>         0.0409
     23 C18         4.9608   -0.0937   -5.0806 C.ar      1 <0>         0.0903
     24 O3          4.8228   -1.3292   -5.6340 O.3       1 <0>        -0.2799
     25 C19         4.2751   -1.3850   -6.9557 C.3       1 <0>         0.0240
     26 C20         4.9793   -0.3241   -7.8124 C.3       1 <0>         0.0183
     27 O4          4.7388    0.9581   -7.2151 O.3       1 <0>        -0.3089
     28 H2          1.0039    1.9031    0.0027 H         1 <0>         0.0566
     29 H3         -0.5459    1.8868   -0.8726 H         1 <0>         0.0522
     30 H4         -0.5289    1.8773    0.9072 H         1 <0>         0.0620
     31 H5          0.5293   -0.3651    0.8851 H         1 <0>         0.0727
     32 H6         -1.0205   -0.3814    0.0098 H         1 <0>         0.0807
     33 H7          2.5430   -0.8772   -0.2191 H         1 <0>         0.1321
     34 H8          0.1457   -0.9892   -4.5389 H         1 <0>         0.1384
     35 H9         -1.3760    0.8179   -2.7050 H         1 <0>         0.3935
     36 H10         2.5373   -2.7708   -4.8109 H         1 <0>         0.3878
     37 H11         8.2023   -0.9923   -2.2297 H         1 <0>         0.0786
     38 H12         8.2808   -2.5827   -3.0250 H         1 <0>         0.0743
     39 H13         7.7021   -1.1631   -3.9294 H         1 <0>         0.0764
     40 H14         5.4394    1.3786   -2.0590 H         1 <0>         0.1267
     41 H15         5.3870    3.3881   -3.4739 H         1 <0>         0.1305
     42 H16         5.0562    3.1843   -5.9012 H         1 <0>         0.1308
     43 H17         4.4444   -2.3737   -7.3824 H         1 <0>         0.1140
     44 H18         3.2056   -1.1778   -6.9196 H         1 <0>         0.0809
     45 H19         6.0495   -0.5285   -7.8443 H         1 <0>         0.0756
     46 H20         4.5716   -0.3378   -8.8231 H         1 <0>         0.1176
@<TRIPOS>BOND
     1    1    2 1
     2    1   28 1
     3    1   29 1
     4    1   30 1
     5    2    3 1
     6    2   31 1
     7    2   32 1
     8    3    8 ar
     9    3    4 ar
    10    4    5 ar
    11    4   33 1
    12    5    6 ar
    13    5   11 1
    14    6    7 ar
    15    6   10 1
    16    7    8 ar
    17    7   34 1
    18    8    9 1
    19    9   35 1
    20   10   36 1
    21   11   15 1
    22   11   12 2
    23   12   13 1
    24   12   18 1
    25   13   14 2
    26   13   17 1
    27   14   15 1
    28   15   16 1
    29   17   37 1
    30   17   38 1
    31   17   39 1
    32   18   23 ar
    33   18   19 ar
    34   19   20 ar
    35   19   40 1
    36   20   21 ar
    37   20   41 1
    38   21   22 ar
    39   21   42 1
    40   22   27 1
    41   22   23 ar
    42   23   24 1
    43   24   25 1
    44   25   26 1
    45   25   43 1
    46   25   44 1
    47   26   27 1
    48   26   45 1
    49   26   46 1
@<TRIPOS>MOLECULE
CHEMBL204734__1
   46    49     0     0     0
SMALL
USER_CHARGES

@<TRIPOS>ATOM
      1 C1          5.0000   -0.1592    2.5808 C.3       1 <0>        -0.1452
      2 C2          3.7363    0.6940    2.7063 C.3       1 <0>        -0.0801
      3 C3          2.5212   -0.1767    2.5150 C.ar      1 <0>        -0.1140
      4 C4          1.8114   -0.6178    3.6125 C.ar      1 <0>        -0.0598
      5 C5          0.6879   -1.4228    3.4373 C.ar      1 <0>        -0.0415
      6 C6          0.2834   -1.7812    2.1468 C.ar      1 <0>         0.1461
      7 C7          1.0016   -1.3340    1.0514 C.ar      1 <0>        -0.1761
      8 C8          2.1160   -0.5280    1.2342 C.ar      1 <0>         0.1315
      9 O1          2.8162   -0.0858    0.1569 O.3       1 <0>        -0.4922
     10 O2         -0.8110   -2.5662    1.9694 O.3       1 <0>        -0.4872
     11 C9         -0.0766   -1.8987    4.6150 C.2       1 <0>         0.1488
     12 C10         0.4710   -2.4759    5.7884 C.2       1 <0>        -0.1792
     13 C11        -0.5660   -2.7732    6.6209 C.2       1 <0>         0.1085
     14 N1         -1.7087   -2.4035    6.0060 N.pl3     1 <0>        -0.4685
     15 N2         -1.3832   -1.8555    4.7595 N.2       1 <0>        -0.2767
     16 H1         -2.6038   -2.4979    6.3679 H         1 <0>         0.4409
     17 C12        -0.4561   -3.4034    7.9853 C.3       1 <0>        -0.0936
     18 C13         1.9102   -2.7128    6.0604 C.ar      1 <0>         0.0021
     19 C14         2.6464   -1.7801    6.7880 C.ar      1 <0>        -0.1064
     20 C15         3.9850   -2.0029    7.0397 C.ar      1 <0>        -0.1140
     21 C16         4.6006   -3.1490    6.5705 C.ar      1 <0>        -0.1129
     22 C17         3.8781   -4.0851    5.8441 C.ar      1 <0>         0.0482
     23 C18         2.5295   -3.8746    5.5924 C.ar      1 <0>         0.0675
     24 O3          1.7996   -4.7858    4.8932 O.3       1 <0>        -0.2936
     25 C19         2.5336   -5.7469    4.1267 C.3       1 <0>         0.0197
     26 C20         3.6626   -6.3013    5.0060 C.3       1 <0>         0.0207
     27 O4          4.5049   -5.2045    5.3885 O.3       1 <0>        -0.3074
     28 H2          5.0329   -0.6166    1.5920 H         1 <0>         0.0503
     29 H3          5.8789    0.4705    2.7193 H         1 <0>         0.0610
     30 H4          4.9887   -0.9395    3.3419 H         1 <0>         0.0565
     31 H5          3.7034    1.1514    3.6952 H         1 <0>         0.0731
     32 H6          3.7476    1.4743    1.9453 H         1 <0>         0.0796
     33 H7          2.1267   -0.3395    4.6072 H         1 <0>         0.1344
     34 H8          0.6922   -1.6092    0.0540 H         1 <0>         0.1376
     35 H9          3.5292   -0.6779   -0.1188 H         1 <0>         0.3908
     36 H10        -1.6256   -2.0732    1.8011 H         1 <0>         0.3938
     37 H11        -0.3560   -2.6226    8.7392 H         1 <0>         0.0843
     38 H12        -1.3517   -3.9909    8.1874 H         1 <0>         0.0735
     39 H13         0.4189   -4.0527    8.0163 H         1 <0>         0.0857
     40 H14         2.1699   -0.8829    7.1546 H         1 <0>         0.1305
     41 H15         4.5539   -1.2794    7.6047 H         1 <0>         0.1336
     42 H16         5.6487   -3.3161    6.7701 H         1 <0>         0.1335
     43 H17         1.8717   -6.5581    3.8234 H         1 <0>         0.1202
     44 H18         2.9568   -5.2674    3.2440 H         1 <0>         0.0760
     45 H19         3.2396   -6.7762    5.8913 H         1 <0>         0.0783
     46 H20         4.2453   -7.0287    4.4409 H         1 <0>         0.1215
@<TRIPOS>BOND
     1    1    2 1
     2    1   28 1
     3    1   29 1
     4    1   30 1
     5    2    3 1
     6    2   31 1
     7    2   32 1
     8    3    8 ar
     9    3    4 ar
    10    4    5 ar
    11    4   33 1
    12    5    6 ar
    13    5   11 1
    14    6    7 ar
    15    6   10 1
    16    7    8 ar
    17    7   34 1
    18    8    9 1
    19    9   35 1
    20   10   36 1
    21   11   15 2
    22   11   12 1
    23   12   18 1
    24   12   13 2
    25   13   17 1
    26   13   14 1
    27   14   15 1
    28   14   16 1
    29   17   37 1
    30   17   38 1
    31   17   39 1
    32   18   23 ar
    33   18   19 ar
    34   19   20 ar
    35   19   40 1
    36   20   21 ar
    37   20   41 1
    38   21   22 ar
    39   21   42 1
    40   22   27 1
    41   22   23 ar
    42   23   24 1
    43   24   25 1
    44   25   26 1
    45   25   43 1
    46   25   44 1
    47   26   27 1
    48   26   45 1
    49   26   46 1
@<TRIPOS>MOLECULE
CHEMBL457042
   32    34     0     0     0
SMALL
USER_CHARGES

@<TRIPOS>ATOM
      1 C1          1.8356    1.2777   -0.0753 C.3       1 <0>        -0.1223
      2 C2          1.4558   -0.1806   -0.0651 C.ar      1 <0>        -0.0602
      3 C3          1.1457   -0.8198   -1.2524 C.ar      1 <0>        -0.1172
      4 C4          0.7972   -2.1545   -1.2503 C.ar      1 <0>        -0.0871
      5 C5          0.7579   -2.8605   -0.0464 C.ar      1 <0>        -0.0313
      6 C6          1.0720   -2.2094    1.1480 C.ar      1 <0>        -0.0886
      7 C7          1.4243   -0.8757    1.1308 C.ar      1 <0>        -0.1158
      8 C8          0.3851   -4.2899   -0.0364 C.2       1 <0>        -0.1053
      9 C9          0.1641   -5.1523    1.0418 C.2       1 <0>         0.0597
     10 N1         -0.1582   -6.3832    0.6895 N.2       1 <0>        -0.2269
     11 N2         -0.2554   -6.7389   -0.5410 N.2       1 <0>        -0.2127
     12 S1          0.0814   -5.4043   -1.3971 S.3       1 <0>         0.2865
     13 C10         0.2817   -4.7228    2.4550 C.ar      1 <0>        -0.0417
     14 C11        -0.6162   -3.7948    2.9807 C.ar      1 <0>        -0.0547
     15 C12        -0.5041   -3.3967    4.2972 C.ar      1 <0>        -0.0747
     16 C13         0.5022   -3.9186    5.1013 C.ar      1 <0>         0.1509
     17 C14         1.3992   -4.8417    4.5852 C.ar      1 <0>        -0.1607
     18 C15         1.2904   -5.2515    3.2673 C.ar      1 <0>         0.1636
     19 O1          2.1648   -6.1608    2.7624 O.3       1 <0>        -0.4806
     20 O2          0.6077   -3.5228    6.3973 O.3       1 <0>        -0.4827
     21 Cl1        -1.6224   -2.2407    4.9504 Cl        1 <0>        -0.0416
     22 H1          2.9142    1.3714   -0.2016 H         1 <0>         0.0767
     23 H2          1.3283    1.7795   -0.8993 H         1 <0>         0.0711
     24 H3          1.5390    1.7370    0.8677 H         1 <0>         0.0714
     25 H4          1.1762   -0.2724   -2.1829 H         1 <0>         0.1325
     26 H5          0.5550   -2.6522   -2.1777 H         1 <0>         0.1291
     27 H6          1.0431   -2.7496    2.0827 H         1 <0>         0.1341
     28 H7          1.6717   -0.3719    2.0535 H         1 <0>         0.1316
     29 H8         -1.3988   -3.3875    2.3579 H         1 <0>         0.1469
     30 H9          2.1800   -5.2448    5.2130 H         1 <0>         0.1534
     31 H10         2.9580   -5.7690    2.3719 H         1 <0>         0.3958
     32 H11         0.1016   -4.0660    7.0169 H         1 <0>         0.4008
@<TRIPOS>BOND
     1    1    2 1
     2    1   22 1
     3    1   23 1
     4    1   24 1
     5    2    7 ar
     6    2    3 ar
     7    3    4 ar
     8    3   25 1
     9    4    5 ar
    10    4   26 1
    11    5    6 ar
    12    5    8 1
    13    6    7 ar
    14    6   27 1
    15    7   28 1
    16    8   12 1
    17    8    9 2
    18    9   10 1
    19    9   13 1
    20   10   11 2
    21   11   12 1
    22   13   18 ar
    23   13   14 ar
    24   14   15 ar
    25   14   29 1
    26   15   16 ar
    27   15   21 1
    28   16   17 ar
    29   16   20 1
    30   17   18 ar
    31   17   30 1
    32   18   19 1
    33   19   31 1
    34   20   32 1
@<TRIPOS>MOLECULE
CHEMBL517583
   36    38     0     0     0
SMALL
USER_CHARGES

@<TRIPOS>ATOM
      1 C1         -2.0152    1.1931   -1.0749 C.3       1 <0>        -0.1543
      2 C2         -1.6214   -0.2726   -0.8811 C.3       1 <0>         0.0512
      3 O1         -0.9233   -0.7353   -2.0390 O.3       1 <0>        -0.3096
      4 C3         -0.5005   -2.0266   -2.0293 C.ar      1 <0>         0.1577
      5 C4         -0.7592   -2.8316   -0.9278 C.ar      1 <0>        -0.2066
      6 C5         -0.3317   -4.1420   -0.9137 C.ar      1 <0>        -0.0475
      7 C6          0.3621   -4.6598   -2.0095 C.ar      1 <0>        -0.0652
      8 C7          0.6197   -3.8469   -3.1154 C.ar      1 <0>        -0.0519
      9 C8          0.1841   -2.5392   -3.1234 C.ar      1 <0>        -0.1468
     10 C9          0.8225   -6.0632   -1.9986 C.2       1 <0>        -0.0964
     11 C10         1.6261   -6.7515   -2.9131 C.2       1 <0>         0.0547
     12 N1          1.8459   -8.0134   -2.5934 N.2       1 <0>        -0.2252
     13 N2          1.3563   -8.5450   -1.5314 N.2       1 <0>        -0.2147
     14 S1          0.5176   -7.3598   -0.8106 S.3       1 <0>         0.2794
     15 C11         2.1810   -6.1204   -4.1335 C.ar      1 <0>        -0.0416
     16 C12         3.1305   -5.1053   -4.0256 C.ar      1 <0>        -0.0564
     17 C13         3.6455   -4.5194   -5.1640 C.ar      1 <0>        -0.0744
     18 C14         3.2196   -4.9384   -6.4188 C.ar      1 <0>         0.1509
     19 C15         2.2751   -5.9473   -6.5338 C.ar      1 <0>        -0.1604
     20 C16         1.7580   -6.5453   -5.3973 C.ar      1 <0>         0.1634
     21 O2          0.8369   -7.5381   -5.5090 O.3       1 <0>        -0.4806
     22 O3          3.7300   -4.3574   -7.5365 O.3       1 <0>        -0.4825
     23 Cl1         4.8278   -3.2555   -5.0284 Cl        1 <0>        -0.0414
     24 H1         -1.1178    1.7940   -1.2224 H         1 <0>         0.0681
     25 H2         -2.6606    1.2835   -1.9486 H         1 <0>         0.0680
     26 H3         -2.5477    1.5461   -0.1917 H         1 <0>         0.0811
     27 H4         -0.9759   -0.3629   -0.0074 H         1 <0>         0.0659
     28 H5         -2.5187   -0.8734   -0.7336 H         1 <0>         0.0658
     29 H6         -1.2958   -2.4303   -0.0808 H         1 <0>         0.1381
     30 H7         -0.5326   -4.7672   -0.0563 H         1 <0>         0.1325
     31 H8          1.1562   -4.2435   -3.9647 H         1 <0>         0.1406
     32 H9          0.3790   -1.9111   -3.9801 H         1 <0>         0.1410
     33 H10         3.4626   -4.7774   -3.0517 H         1 <0>         0.1473
     34 H11         1.9463   -6.2700   -7.5106 H         1 <0>         0.1534
     35 H12        -0.0781   -7.2256   -5.5260 H         1 <0>         0.3959
     36 H13         4.5237   -4.7916   -7.8780 H         1 <0>         0.4006
@<TRIPOS>BOND
     1    1    2 1
     2    1   24 1
     3    1   25 1
     4    1   26 1
     5    2    3 1
     6    2   27 1
     7    2   28 1
     8    3    4 1
     9    4    9 ar
    10    4    5 ar
    11    5    6 ar
    12    5   29 1
    13    6    7 ar
    14    6   30 1
    15    7    8 ar
    16    7   10 1
    17    8    9 ar
    18    8   31 1
    19    9   32 1
    20   10   14 1
    21   10   11 2
    22   11   12 1
    23   11   15 1
    24   12   13 2
    25   13   14 1
    26   15   20 ar
    27   15   16 ar
    28   16   17 ar
    29   16   33 1
    30   17   18 ar
    31   17   23 1
    32   18   19 ar
    33   18   22 1
    34   19   20 ar
    35   19   34 1
    36   20   21 1
    37   21   35 1
    38   22   36 1
@<TRIPOS>MOLECULE
CHEMBL515048
   37    39     0     0     0
SMALL
USER_CHARGES

@<TRIPOS>ATOM
      1 C1         -0.2221    1.2038    2.1427 C.3       1 <0>         0.0218
      2 O1         -0.1691   -0.1883    1.8246 O.3       1 <0>        -0.2998
      3 C2         -1.3381   -0.7854    1.4701 C.ar      1 <0>         0.1273
      4 C3         -2.5085   -0.0426    1.4248 C.ar      1 <0>        -0.1699
      5 C4         -3.6970   -0.6434    1.0653 C.ar      1 <0>        -0.0844
      6 C5         -3.7235   -2.0025    0.7461 C.ar      1 <0>        -0.0233
      7 C6         -2.5452   -2.7503    0.7918 C.ar      1 <0>        -0.1490
      8 C7         -1.3564   -2.1403    1.1478 C.ar      1 <0>         0.1061
      9 O2         -0.2060   -2.8645    1.1878 O.3       1 <0>        -0.3008
     10 C8         -0.2984   -4.2487    0.8450 C.3       1 <0>         0.0216
     11 C9         -4.9952   -2.6478    0.3614 C.2       1 <0>        -0.1008
     12 C10        -6.2545   -2.0844    0.1326 C.2       1 <0>         0.0599
     13 N1         -7.1840   -2.9609   -0.2005 N.2       1 <0>        -0.2254
     14 N2         -6.9347   -4.2170   -0.3007 N.2       1 <0>        -0.2112
     15 S1         -5.3591   -4.3670    0.0490 S.3       1 <0>         0.2816
     16 C11        -6.5223   -0.6321    0.2541 C.ar      1 <0>        -0.0420
     17 C12        -5.9329    0.2644   -0.6362 C.ar      1 <0>        -0.0550
     18 C13        -6.1845    1.6163   -0.5208 C.ar      1 <0>        -0.0751
     19 C14        -7.0245    2.0872    0.4812 C.ar      1 <0>         0.1509
     20 C15        -7.6143    1.2014    1.3705 C.ar      1 <0>        -0.1606
     21 C16        -7.3717   -0.1570    1.2588 C.ar      1 <0>         0.1641
     22 O3         -7.9535   -1.0264    2.1262 O.3       1 <0>        -0.4805
     23 O4         -7.2683    3.4199    0.5903 O.3       1 <0>        -0.4828
     24 Cl1        -5.4495    2.7316   -1.6297 Cl        1 <0>        -0.0417
     25 H1          0.7755    1.5542    2.4077 H         1 <0>         0.1052
     26 H2         -0.5850    1.7604    1.2786 H         1 <0>         0.0596
     27 H3         -0.8971    1.3588    2.9843 H         1 <0>         0.0589
     28 H4         -2.4894    1.0086    1.6718 H         1 <0>         0.1458
     29 H5         -4.6070   -0.0628    1.0311 H         1 <0>         0.1394
     30 H6         -2.5616   -3.8018    0.5459 H         1 <0>         0.1416
     31 H7         -0.9827   -4.7479    1.5310 H         1 <0>         0.0576
     32 H8         -0.6706   -4.3464   -0.1748 H         1 <0>         0.0575
     33 H9          0.6877   -4.7075    0.9175 H         1 <0>         0.1057
     34 H10        -5.2795   -0.0990   -1.4155 H         1 <0>         0.1475
     35 H11        -8.2662    1.5711    2.1481 H         1 <0>         0.1534
     36 H12        -7.4316   -1.1963    2.9223 H         1 <0>         0.3961
     37 H13        -8.0316    3.7231    0.0799 H         1 <0>         0.4009
@<TRIPOS>BOND
     1    1    2 1
     2    1   25 1
     3    1   26 1
     4    1   27 1
     5    2    3 1
     6    3    8 ar
     7    3    4 ar
     8    4    5 ar
     9    4   28 1
    10    5    6 ar
    11    5   29 1
    12    6    7 ar
    13    6   11 1
    14    7    8 ar
    15    7   30 1
    16    8    9 1
    17    9   10 1
    18   10   31 1
    19   10   32 1
    20   10   33 1
    21   11   15 1
    22   11   12 2
    23   12   13 1
    24   12   16 1
    25   13   14 2
    26   14   15 1
    27   16   21 ar
    28   16   17 ar
    29   17   18 ar
    30   17   34 1
    31   18   19 ar
    32   18   24 1
    33   19   20 ar
    34   19   23 1
    35   20   21 ar
    36   20   35 1
    37   21   22 1
    38   22   36 1
    39   23   37 1
@<TRIPOS>MOLECULE
CHEMBL454733
   33    35     0     0     0
SMALL
USER_CHARGES

@<TRIPOS>ATOM
      1 C1         -1.4840    1.3452    1.1632 C.3       1 <0>         0.0229
      2 O1         -1.4339   -0.0827    1.1400 O.3       1 <0>        -0.3106
      3 C2         -0.5247   -0.6813    1.9532 C.ar      1 <0>         0.1539
      4 C3          0.2978    0.0932    2.7606 C.ar      1 <0>        -0.2058
      5 C4          1.2218   -0.5100    3.5867 C.ar      1 <0>        -0.0480
      6 C5          1.3298   -1.9020    3.6112 C.ar      1 <0>        -0.0643
      7 C6          0.5005   -2.6772    2.7979 C.ar      1 <0>        -0.0525
      8 C7         -0.4245   -2.0661    1.9786 C.ar      1 <0>        -0.1461
      9 C8          2.3189   -2.5527    4.4944 C.2       1 <0>        -0.0970
     10 C9          2.6839   -3.8989    4.5951 C.2       1 <0>         0.0551
     11 N1          3.6141   -4.1381    5.5010 N.2       1 <0>        -0.2252
     12 N2          4.1271   -3.2036    6.2176 N.2       1 <0>        -0.2143
     13 S1          3.3930   -1.8429    5.7305 S.3       1 <0>         0.2797
     14 C10         2.0796   -4.9629    3.7595 C.ar      1 <0>        -0.0418
     15 C11         2.2999   -4.9807    2.3830 C.ar      1 <0>        -0.0564
     16 C12         1.7357   -5.9729    1.6074 C.ar      1 <0>        -0.0745
     17 C13         0.9474   -6.9550    2.1950 C.ar      1 <0>         0.1510
     18 C14         0.7234   -6.9435    3.5635 C.ar      1 <0>        -0.1604
     19 C15         1.2910   -5.9558    4.3502 C.ar      1 <0>         0.1634
     20 O2          1.0771   -5.9470    5.6921 O.3       1 <0>        -0.4806
     21 O3          0.3939   -7.9296    1.4260 O.3       1 <0>        -0.4825
     22 Cl1         2.0109   -5.9939   -0.1065 Cl        1 <0>        -0.0413
     23 H1         -0.5156    1.7476    0.8659 H         1 <0>         0.0597
     24 H2         -2.2502    1.6932    0.4703 H         1 <0>         0.1049
     25 H3         -1.7245    1.6841    2.1709 H         1 <0>         0.0596
     26 H4          0.2136    1.1698    2.7411 H         1 <0>         0.1389
     27 H5          1.8616    0.0932    4.2138 H         1 <0>         0.1327
     28 H6          0.5811   -3.7541    2.8136 H         1 <0>         0.1408
     29 H7         -1.0693   -2.6650    1.3526 H         1 <0>         0.1413
     30 H8          2.9116   -4.2182    1.9239 H         1 <0>         0.1474
     31 H9          0.1099   -7.7083    4.0165 H         1 <0>         0.1534
     32 H10         0.2969   -5.4440    5.9628 H         1 <0>         0.3959
     33 H11         0.9501   -8.7141    1.3246 H         1 <0>         0.4007
@<TRIPOS>BOND
     1    1    2 1
     2    1   23 1
     3    1   24 1
     4    1   25 1
     5    2    3 1
     6    3    8 ar
     7    3    4 ar
     8    4    5 ar
     9    4   26 1
    10    5    6 ar
    11    5   27 1
    12    6    7 ar
    13    6    9 1
    14    7    8 ar
    15    7   28 1
    16    8   29 1
    17    9   13 1
    18    9   10 2
    19   10   11 1
    20   10   14 1
    21   11   12 2
    22   12   13 1
    23   14   19 ar
    24   14   15 ar
    25   15   16 ar
    26   15   30 1
    27   16   17 ar
    28   16   22 1
    29   17   18 ar
    30   17   21 1
    31   18   19 ar
    32   18   31 1
    33   19   20 1
    34   20   32 1
    35   21   33 1
@<TRIPOS>MOLECULE
CHEMBL178130
   42    45     0     0     0
SMALL
USER_CHARGES

@<TRIPOS>ATOM
      1 C1          0.0965    0.3033   -5.8323 C.3       1 <0>        -0.1447
      2 C2          0.8973    1.1309   -4.8250 C.3       1 <0>        -0.0789
      3 C3          1.2275    0.2803   -3.6256 C.ar      1 <0>        -0.1122
      4 C4          2.4811   -0.2829   -3.5059 C.ar      1 <0>        -0.0642
      5 C5          2.7881   -1.0695   -2.3978 C.ar      1 <0>        -0.0132
      6 C6          1.8220   -1.2855   -1.4093 C.ar      1 <0>         0.1376
      7 C7          0.5668   -0.7165   -1.5375 C.ar      1 <0>        -0.1745
      8 C8          0.2710    0.0702   -2.6413 C.ar      1 <0>         0.1180
      9 O1         -0.9602    0.6322   -2.7622 O.3       1 <0>        -0.4947
     10 O2          2.1150   -2.0519   -0.3265 O.3       1 <0>        -0.4861
     11 C9          4.1344   -1.6764   -2.2668 C.2       1 <0>         0.0737
     12 C10         4.8425   -2.3708   -3.2794 C.2       1 <0>        -0.1458
     13 C11         6.0485   -2.7471   -2.6816 C.2       1 <0>         0.0134
     14 N1          6.0001   -2.2772   -1.3961 N.pl3     1 <0>        -0.3704
     15 H1          6.7030   -2.3887   -0.7370 H         1 <0>         0.4476
     16 N2          4.8916   -1.6635   -1.1919 N.2       1 <0>        -0.2903
     17 C12         7.1424   -3.4932   -3.3038 C.2       1 <0>         0.5452
     18 O3          8.1492   -3.7563   -2.6580 O.co2     1 <0>        -0.6865
     19 O4          7.0512   -3.8546   -4.4704 O.co2     1 <0>        -0.6508
     20 C13         4.4012   -2.6391   -4.6661 C.ar      1 <0>         0.0481
     21 C14         3.3246   -3.4947   -4.9042 C.ar      1 <0>        -0.0970
     22 C15         2.9145   -3.7437   -6.1970 C.ar      1 <0>        -0.1008
     23 C16         3.5692   -3.1461   -7.2644 C.ar      1 <0>         0.0171
     24 C17         4.6457   -2.2904   -7.0328 C.ar      1 <0>         0.0310
     25 C18         5.0570   -2.0329   -5.7383 C.ar      1 <0>        -0.0558
     26 O5          5.1097   -1.8387   -8.2348 O.3       1 <0>        -0.3120
     27 C19         4.5720   -2.7424   -9.2183 C.3       1 <0>         0.2142
     28 O6          3.3607   -3.2286   -8.6108 O.3       1 <0>        -0.3154
     29 H2          0.6878   -0.5561   -6.1481 H         1 <0>         0.0592
     30 H3         -0.8265   -0.0421   -5.3666 H         1 <0>         0.0498
     31 H4         -0.1423    0.9186   -6.6998 H         1 <0>         0.0568
     32 H5          1.8203    1.4763   -5.2907 H         1 <0>         0.0717
     33 H6          0.3060    1.9904   -4.5091 H         1 <0>         0.0759
     34 H7          3.2243   -0.1143   -4.2712 H         1 <0>         0.1328
     35 H8         -0.1811   -0.8815   -0.7761 H         1 <0>         0.1331
     36 H9         -1.6017    0.0778   -3.2273 H         1 <0>         0.3862
     37 H10         2.4085   -1.5476    0.4445 H         1 <0>         0.3908
     38 H11         2.8129   -3.9620   -4.0759 H         1 <0>         0.1304
     39 H12         2.0814   -4.4064   -6.3792 H         1 <0>         0.1288
     40 H13         5.8874   -1.3665   -5.5573 H         1 <0>         0.1285
     41 H14         4.3499   -2.2123  -10.1445 H         1 <0>         0.1242
     42 H15         5.2644   -3.5638   -9.4027 H         1 <0>         0.0792
@<TRIPOS>BOND
     1    1    2 1
     2    1   29 1
     3    1   30 1
     4    1   31 1
     5    2    3 1
     6    2   32 1
     7    2   33 1
     8    3    8 ar
     9    3    4 ar
    10    4    5 ar
    11    4   34 1
    12    5    6 ar
    13    5   11 1
    14    6    7 ar
    15    6   10 1
    16    7    8 ar
    17    7   35 1
    18    8    9 1
    19    9   36 1
    20   10   37 1
    21   11   16 2
    22   11   12 1
    23   12   13 2
    24   12   20 1
    25   13   14 1
    26   13   17 1
    27   14   15 1
    28   14   16 1
    29   17   18 2
    30   17   19 1
    31   20   25 ar
    32   20   21 ar
    33   21   22 ar
    34   21   38 1
    35   22   23 ar
    36   22   39 1
    37   23   28 1
    38   23   24 ar
    39   24   25 ar
    40   24   26 1
    41   25   40 1
    42   26   27 1
    43   27   28 1
    44   27   41 1
    45   27   42 1
@<TRIPOS>MOLECULE
CHEMBL178130__1
   42    45     0     0     0
SMALL
USER_CHARGES

@<TRIPOS>ATOM
      1 C1         -1.4962   -2.8834   -1.8039 C.3       1 <0>        -0.1451
      2 C2         -0.7738   -2.2591   -2.9994 C.3       1 <0>        -0.0802
      3 C3          0.3843   -1.4288   -2.5089 C.ar      1 <0>        -0.1157
      4 C4          1.6638   -1.9402   -2.5530 C.ar      1 <0>        -0.0708
      5 C5          2.7373   -1.1724   -2.0991 C.ar      1 <0>        -0.0432
      6 C6          2.5084    0.1169   -1.5998 C.ar      1 <0>         0.1496
      7 C7          1.2201    0.6201   -1.5602 C.ar      1 <0>        -0.1699
      8 C8          0.1598   -0.1485   -2.0190 C.ar      1 <0>         0.1272
      9 O1         -1.1032    0.3511   -1.9841 O.3       1 <0>        -0.4924
     10 O2          3.5479    0.8701   -1.1558 O.3       1 <0>        -0.4874
     11 C9          4.1092   -1.7167   -2.1442 C.2       1 <0>         0.0477
     12 C10         5.1608   -1.2539   -2.9278 C.2       1 <0>        -0.1268
     13 C11         6.2815   -2.1394   -2.5895 C.2       1 <0>         0.0231
     14 N1          5.8242   -2.9933   -1.6935 N.2       1 <0>        -0.2569
     15 H1          4.0693   -3.2786   -0.7855 H         1 <0>         0.4330
     16 N2          4.5922   -2.7663   -1.4219 N.pl3     1 <0>        -0.3991
     17 C12         7.6451   -2.0859   -3.1410 C.2       1 <0>         0.5581
     18 O3          7.9359   -1.2365   -3.9721 O.co2     1 <0>        -0.6674
     19 O4          8.4877   -2.8908   -2.7683 O.co2     1 <0>        -0.6739
     20 C13         5.1519   -0.1245   -3.8855 C.ar      1 <0>         0.0424
     21 C14         4.3793   -0.1970   -5.0447 C.ar      1 <0>        -0.1006
     22 C15         4.3723    0.8557   -5.9362 C.ar      1 <0>        -0.0999
     23 C16         5.1314    1.9888   -5.6838 C.ar      1 <0>         0.0176
     24 C17         5.9052    2.0673   -4.5270 C.ar      1 <0>         0.0326
     25 C18         5.9116    1.0165   -3.6277 C.ar      1 <0>        -0.0606
     26 O5          6.5495    3.2709   -4.5142 O.3       1 <0>        -0.3104
     27 C19         6.4841    3.7562   -5.8681 C.3       1 <0>         0.2139
     28 O6          5.2920    3.1438   -6.3941 O.3       1 <0>        -0.3151
     29 H2         -0.8030   -3.5174   -1.2511 H         1 <0>         0.0554
     30 H3         -1.8665   -2.0936   -1.1502 H         1 <0>         0.0510
     31 H4         -2.3338   -3.4839   -2.1587 H         1 <0>         0.0588
     32 H5         -0.4035   -3.0488   -3.6530 H         1 <0>         0.0727
     33 H6         -1.4670   -1.6251   -3.5522 H         1 <0>         0.0789
     34 H7          1.8354   -2.9344   -2.9383 H         1 <0>         0.1330
     35 H8          1.0402    1.6133   -1.1760 H         1 <0>         0.1372
     36 H9         -1.5768    0.1659   -1.1616 H         1 <0>         0.3876
     37 H10         3.9543    1.4211   -1.8387 H         1 <0>         0.3943
     38 H11         3.7867   -1.0776   -5.2444 H         1 <0>         0.1310
     39 H12         3.7738    0.7976   -6.8333 H         1 <0>         0.1303
     40 H13         6.5071    1.0778   -2.7288 H         1 <0>         0.1341
     41 H14         6.3946    4.8425   -5.8816 H         1 <0>         0.1253
     42 H15         7.3600    3.4362   -6.4324 H         1 <0>         0.0808
@<TRIPOS>BOND
     1    1    2 1
     2    1   29 1
     3    1   30 1
     4    1   31 1
     5    2    3 1
     6    2   32 1
     7    2   33 1
     8    3    8 ar
     9    3    4 ar
    10    4    5 ar
    11    4   34 1
    12    5    6 ar
    13    5   11 1
    14    6    7 ar
    15    6   10 1
    16    7    8 ar
    17    7   35 1
    18    8    9 1
    19    9   36 1
    20   10   37 1
    21   11   12 2
    22   11   16 1
    23   12   20 1
    24   12   13 1
    25   13   17 1
    26   13   14 2
    27   14   16 1
    28   15   16 1
    29   17   18 2
    30   17   19 1
    31   20   25 ar
    32   20   21 ar
    33   21   22 ar
    34   21   38 1
    35   22   23 ar
    36   22   39 1
    37   23   28 1
    38   23   24 ar
    39   24   25 ar
    40   24   26 1
    41   25   40 1
    42   26   27 1
    43   27   28 1
    44   27   41 1
    45   27   42 1
@<TRIPOS>MOLECULE
CHEMBL360563
   34    36     0     0     0
SMALL
USER_CHARGES

@<TRIPOS>ATOM
      1 C1          0.1485    1.9169   -0.3033 C.3       1 <0>        -0.1468
      2 C2          0.1553    0.4034   -0.0793 C.3       1 <0>        -0.0761
      3 C3          0.7861   -0.2773   -1.2666 C.ar      1 <0>        -0.1183
      4 C4          2.0988   -0.6968   -1.2018 C.ar      1 <0>        -0.0157
      5 C5          2.6834   -1.3263   -2.2986 C.ar      1 <0>        -0.0378
      6 C6          1.9357   -1.5307   -3.4632 C.ar      1 <0>         0.1427
      7 C7          0.6194   -1.1065   -3.5194 C.ar      1 <0>        -0.1818
      8 C8          0.0429   -0.4856   -2.4208 C.ar      1 <0>         0.1316
      9 O1         -1.2512   -0.0750   -2.4765 O.3       1 <0>        -0.4942
     10 O2          2.5002   -2.1435   -4.5363 O.3       1 <0>        -0.4866
     11 C9          4.0939   -1.7777   -2.2319 C.2       1 <0>         0.1424
     12 C10         4.6746   -2.5512   -1.1959 C.2       1 <0>        -0.1438
     13 C11         5.9838   -2.7478   -1.5157 C.2       1 <0>         0.0668
     14 N1          6.2191   -2.1305   -2.6933 N.pl3     1 <0>        -0.4723
     15 H1          7.0683   -2.1061   -3.1615 H         1 <0>         0.4439
     16 N2          5.0277   -1.5364   -3.1266 N.2       1 <0>        -0.2613
     17 C12         3.9820   -3.0552    0.0169 C.2       1 <0>         0.0830
     18 C13         4.5631   -3.6997    1.0613 C.2       1 <0>        -0.0539
     19 N3          3.5638   -3.9829    1.9533 N.pl3     1 <0>        -0.5696
     20 H2          3.6647   -4.4403    2.8027 H         1 <0>         0.4213
     21 C14         2.4117   -3.5076    1.4328 C.2       1 <0>         0.1892
     22 N4          2.6644   -2.9500    0.2814 N.2       1 <0>        -0.4755
     23 H3          1.1724    2.2710   -0.4235 H         1 <0>         0.0543
     24 H4         -0.4239    2.1487   -1.2015 H         1 <0>         0.0513
     25 H5         -0.3077    2.4093    0.5555 H         1 <0>         0.0585
     26 H6          0.7278    0.1717    0.8189 H         1 <0>         0.0706
     27 H7         -0.8685    0.0493    0.0409 H         1 <0>         0.0774
     28 H8          2.6731   -0.5370   -0.3013 H         1 <0>         0.1285
     29 H9          0.0397   -1.2626   -4.4172 H         1 <0>         0.1342
     30 H10        -1.3636    0.8282   -2.8030 H         1 <0>         0.3888
     31 H11         2.3299   -3.0943   -4.5808 H         1 <0>         0.3877
     32 H12         6.7054   -3.2990   -0.9312 H         1 <0>         0.1797
     33 H13         5.6101   -3.9423    1.1674 H         1 <0>         0.1749
     34 H14         1.4390   -3.5746    1.8973 H         1 <0>         0.2073
@<TRIPOS>BOND
     1    1    2 1
     2    1   23 1
     3    1   24 1
     4    1   25 1
     5    2    3 1
     6    2   26 1
     7    2   27 1
     8    3    8 ar
     9    3    4 ar
    10    4    5 ar
    11    4   28 1
    12    5    6 ar
    13    5   11 1
    14    6    7 ar
    15    6   10 1
    16    7    8 ar
    17    7   29 1
    18    8    9 1
    19    9   30 1
    20   10   31 1
    21   11   16 2
    22   11   12 1
    23   12   13 2
    24   12   17 1
    25   13   14 1
    26   13   32 1
    27   14   15 1
    28   14   16 1
    29   17   22 1
    30   17   18 2
    31   18   19 1
    32   18   33 1
    33   19   20 1
    34   19   21 1
    35   21   22 2
    36   21   34 1
@<TRIPOS>MOLECULE
CHEMBL360563__1
   34    36     0     0     0
SMALL
USER_CHARGES

@<TRIPOS>ATOM
      1 C1         -1.1766    1.9785    0.7062 C.3       1 <0>        -0.1466
      2 C2         -0.8907    0.4772    0.6342 C.3       1 <0>        -0.0834
      3 C3         -2.1841   -0.2719    0.4419 C.ar      1 <0>        -0.1118
      4 C4         -2.5399   -0.7177   -0.8132 C.ar      1 <0>        -0.0639
      5 C5         -3.7378   -1.4117   -0.9928 C.ar      1 <0>        -0.0791
      6 C6         -4.5740   -1.6520    0.1062 C.ar      1 <0>         0.1580
      7 C7         -4.2067   -1.2000    1.3612 C.ar      1 <0>        -0.1687
      8 C8         -3.0113   -0.5160    1.5308 C.ar      1 <0>         0.1441
      9 O1         -2.6511   -0.0788    2.7658 O.3       1 <0>        -0.4901
     10 O2         -5.7413   -2.3262   -0.0604 O.3       1 <0>        -0.4880
     11 C9         -4.1226   -1.8903   -2.3350 C.2       1 <0>         0.1694
     12 C10        -4.2484   -3.2155   -2.7365 C.2       1 <0>        -0.1615
     13 C11        -4.6322   -3.2064   -4.0907 C.2       1 <0>         0.0668
     14 N1         -4.7330   -1.9656   -4.4859 N.2       1 <0>        -0.2793
     15 H1         -4.4313   -0.1470   -3.4395 H         1 <0>         0.4439
     16 N2         -4.4282   -1.1167   -3.4159 N.pl3     1 <0>        -0.4595
     17 C12        -4.0210   -4.4115   -1.8974 C.2       1 <0>         0.0569
     18 C13        -2.9751   -4.6270   -1.0539 C.2       1 <0>        -0.0104
     19 N3         -3.1429   -5.8268   -0.4843 N.2       1 <0>        -0.4878
     20 H2         -5.6581   -5.6713   -2.2919 H         1 <0>         0.4213
     21 C14        -4.2419   -6.3726   -0.9296 C.2       1 <0>         0.1865
     22 N4         -4.8285   -5.5225   -1.8117 N.pl3     1 <0>        -0.5692
     23 H3         -0.2411    2.5203    0.8453 H         1 <0>         0.0629
     24 H4         -1.6501    2.3030   -0.2204 H         1 <0>         0.0550
     25 H5         -1.8424    2.1817    1.5450 H         1 <0>         0.0523
     26 H6         -0.2249    0.2739   -0.2046 H         1 <0>         0.0748
     27 H7         -0.4172    0.1526    1.5608 H         1 <0>         0.0830
     28 H8         -1.8925   -0.5298   -1.6570 H         1 <0>         0.1354
     29 H9         -4.8487   -1.3835    2.2100 H         1 <0>         0.1415
     30 H10        -2.9665    0.8110    2.9755 H         1 <0>         0.3940
     31 H11        -5.6605   -3.2842    0.0432 H         1 <0>         0.3917
     32 H12        -4.8125   -4.0791   -4.7009 H         1 <0>         0.1863
     33 H13        -2.1534   -3.9491   -0.8755 H         1 <0>         0.1653
     34 H14        -4.6246   -7.3403   -0.6405 H         1 <0>         0.2104
@<TRIPOS>BOND
     1    1    2 1
     2    1   23 1
     3    1   24 1
     4    1   25 1
     5    2    3 1
     6    2   26 1
     7    2   27 1
     8    3    8 ar
     9    3    4 ar
    10    4    5 ar
    11    4   28 1
    12    5    6 ar
    13    5   11 1
    14    6    7 ar
    15    6   10 1
    16    7    8 ar
    17    7   29 1
    18    8    9 1
    19    9   30 1
    20   10   31 1
    21   11   12 2
    22   11   16 1
    23   12   13 1
    24   12   17 1
    25   13   14 2
    26   13   32 1
    27   14   16 1
    28   15   16 1
    29   17   18 2
    30   17   22 1
    31   18   19 1
    32   18   33 1
    33   19   21 2
    34   20   22 1
    35   21   34 1
    36   21   22 1
@<TRIPOS>MOLECULE
CHEMBL360563__2
   34    36     0     0     0
SMALL
USER_CHARGES

@<TRIPOS>ATOM
      1 C1         -0.0187    1.5258    0.0104 C.3       1 <0>        -0.1455
      2 C2          0.0021   -0.0041    0.0020 C.3       1 <0>        -0.0805
      3 C3          0.7309   -0.5033    1.2229 C.ar      1 <0>        -0.1180
      4 C4          0.0171   -0.9491    2.3151 C.ar      1 <0>        -0.0664
      5 C5          0.6908   -1.4122    3.4463 C.ar      1 <0>        -0.0604
      6 C6          2.0921   -1.4215    3.4661 C.ar      1 <0>         0.1830
      7 C7          2.7982   -0.9718    2.3646 C.ar      1 <0>        -0.1722
      8 C8          2.1197   -0.5182    1.2423 C.ar      1 <0>         0.1368
      9 O1          2.8164   -0.0821    0.1604 O.3       1 <0>        -0.4942
     10 O2          2.7549   -1.8703    4.5635 O.3       1 <0>        -0.4785
     11 C9         -0.0700   -1.8900    4.6181 C.2       1 <0>         0.1496
     12 C10        -0.0903   -1.3136    5.8805 C.2       1 <0>        -0.1265
     13 C11        -0.9428   -2.0922    6.6822 C.2       1 <0>         0.0631
     14 N1         -1.4106   -3.0755    5.9599 N.2       1 <0>        -0.2848
     15 H1         -1.0804   -3.5807    3.9274 H         1 <0>         0.4404
     16 N2         -0.8911   -2.9784    4.6638 N.pl3     1 <0>        -0.4701
     17 C12         0.6511   -0.1005    6.3053 C.2       1 <0>         0.0900
     18 C13         0.6325    0.4573    7.5440 C.2       1 <0>        -0.0538
     19 N3          1.4522    1.5528    7.4935 N.pl3     1 <0>        -0.5701
     20 H2          1.6451    2.1599    8.2250 H         1 <0>         0.4198
     21 C14         1.9432    1.6322    6.2378 C.2       1 <0>         0.1825
     22 N4          1.4688    0.6430    5.5329 N.2       1 <0>        -0.4667
     23 H3          1.0039    1.9031    0.0027 H         1 <0>         0.0521
     24 H4         -0.5459    1.8868   -0.8726 H         1 <0>         0.0598
     25 H5         -0.5289    1.8773    0.9072 H         1 <0>         0.0558
     26 H6         -1.0205   -0.3814    0.0098 H         1 <0>         0.0706
     27 H7          0.5123   -0.3556   -0.8948 H         1 <0>         0.0791
     28 H8         -1.0627   -0.9397    2.2953 H         1 <0>         0.1278
     29 H9          3.8781   -0.9777    2.3766 H         1 <0>         0.1361
     30 H10         3.0223    0.8625    0.1797 H         1 <0>         0.3917
     31 H11         2.9461   -2.8180    4.5473 H         1 <0>         0.3851
     32 H12        -1.1725   -1.9087    7.7214 H         1 <0>         0.1861
     33 H13         0.0784    0.1053    8.4016 H         1 <0>         0.1752
     34 H14         2.6227    2.3901    5.8769 H         1 <0>         0.2033
@<TRIPOS>BOND
     1    1    2 1
     2    1   23 1
     3    1   24 1
     4    1   25 1
     5    2    3 1
     6    2   26 1
     7    2   27 1
     8    3    8 ar
     9    3    4 ar
    10    4    5 ar
    11    4   28 1
    12    5    6 ar
    13    5   11 1
    14    6    7 ar
    15    6   10 1
    16    7    8 ar
    17    7   29 1
    18    8    9 1
    19    9   30 1
    20   10   31 1
    21   11   12 2
    22   11   16 1
    23   12   13 1
    24   12   17 1
    25   13   14 2
    26   13   32 1
    27   14   16 1
    28   15   16 1
    29   17   22 1
    30   17   18 2
    31   18   19 1
    32   18   33 1
    33   19   20 1
    34   19   21 1
    35   21   22 2
    36   21   34 1
@<TRIPOS>MOLECULE
CHEMBL360563__3
   34    36     0     0     0
SMALL
USER_CHARGES

@<TRIPOS>ATOM
      1 C1          0.1384    1.2263    0.7347 C.3       1 <0>        -0.1458
      2 C2          0.2910   -0.2950    0.7903 C.3       1 <0>        -0.0798
      3 C3          0.8096   -0.7966   -0.5328 C.ar      1 <0>        -0.1127
      4 C4          2.1475   -1.1005   -0.6766 C.ar      1 <0>        -0.0499
      5 C5          2.6285   -1.5643   -1.8992 C.ar      1 <0>        -0.0508
      6 C6          1.7511   -1.7202   -2.9779 C.ar      1 <0>         0.1480
      7 C7          0.4103   -1.4129   -2.8244 C.ar      1 <0>        -0.1750
      8 C8         -0.0617   -0.9570   -1.6020 C.ar      1 <0>         0.1372
      9 O1         -1.3795   -0.6616   -1.4522 O.3       1 <0>        -0.4926
     10 O2          2.2139   -2.1716   -4.1727 O.3       1 <0>        -0.4880
     11 C9          4.0657   -1.8911   -2.0569 C.2       1 <0>         0.1534
     12 C10         5.1566   -1.0831   -1.6445 C.2       1 <0>        -0.1610
     13 C11         6.3032   -1.7455   -1.9726 C.2       1 <0>         0.0751
     14 N1          5.9540   -2.9090   -2.5605 N.pl3     1 <0>        -0.4651
     15 H1          6.5675   -3.5814   -2.8959 H         1 <0>         0.4459
     16 N2          4.5567   -2.9842   -2.5988 N.2       1 <0>        -0.2703
     17 C12         5.0672    0.2365   -0.9806 C.2       1 <0>         0.0544
     18 C13         4.2587    1.2714   -1.3337 C.2       1 <0>        -0.0006
     19 N3          4.4805    2.2799   -0.4815 N.2       1 <0>        -0.4872
     20 H2          6.4421    0.1395    0.6072 H         1 <0>         0.4184
     21 C14         5.3882    1.9264    0.3874 C.2       1 <0>         0.1859
     22 N4          5.7813    0.6546    0.1185 N.pl3     1 <0>        -0.5712
     23 H3          1.1071    1.6813    0.5281 H         1 <0>         0.0604
     24 H4         -0.5639    1.4924   -0.0552 H         1 <0>         0.0515
     25 H5         -0.2366    1.5891    1.6917 H         1 <0>         0.0595
     26 H6          0.9933   -0.5611    1.5803 H         1 <0>         0.0700
     27 H7         -0.6777   -0.7500    0.9970 H         1 <0>         0.0792
     28 H8          2.8219   -0.9785    0.1580 H         1 <0>         0.1293
     29 H9         -0.2694   -1.5322   -3.6551 H         1 <0>         0.1393
     30 H10        -1.6034    0.2554   -1.6620 H         1 <0>         0.3930
     31 H11         2.1155   -3.1254   -4.2977 H         1 <0>         0.3949
     32 H12         7.3108   -1.4001   -1.7943 H         1 <0>         0.1804
     33 H13         3.5604    1.2787   -2.1577 H         1 <0>         0.1653
     34 H14         5.7624    2.5430    1.1912 H         1 <0>         0.2089
@<TRIPOS>BOND
     1    1    2 1
     2    1   23 1
     3    1   24 1
     4    1   25 1
     5    2    3 1
     6    2   26 1
     7    2   27 1
     8    3    8 ar
     9    3    4 ar
    10    4    5 ar
    11    4   28 1
    12    5    6 ar
    13    5   11 1
    14    6    7 ar
    15    6   10 1
    16    7    8 ar
    17    7   29 1
    18    8    9 1
    19    9   30 1
    20   10   31 1
    21   11   16 2
    22   11   12 1
    23   12   13 2
    24   12   17 1
    25   13   14 1
    26   13   32 1
    27   14   15 1
    28   14   16 1
    29   17   18 2
    30   17   22 1
    31   18   19 1
    32   18   33 1
    33   19   21 2
    34   20   22 1
    35   21   34 1
    36   21   22 1
@<TRIPOS>MOLECULE
CHEMBL377559
   87    88     0     0     0
SMALL
USER_CHARGES

@<TRIPOS>ATOM
      1 C1         -0.0187    1.5266    0.0104 C.3       1 <0>        -0.1376
      2 C2          0.0021   -0.0041    0.0020 C.3       1 <0>        -0.0786
      3 H1          0.5127   -0.3499   -0.8956 H         1 <0>         0.0939
      4 C3         -1.4330   -0.5323    0.0170 C.3       1 <0>        -0.0542
      5 C4         -2.1412   -0.0791   -1.2370 C.ar      1 <0>        -0.1362
      6 C5         -3.1962    0.8196   -1.1951 C.ar      1 <0>         0.1924
      7 C6         -3.8219    1.2085   -2.3823 C.ar      1 <0>         0.0517
      8 C7         -3.3945    0.6966   -3.5947 C.ar      1 <0>        -0.1296
      9 C8         -2.3423   -0.2063   -3.6395 C.ar      1 <0>         0.1142
     10 C9         -1.7163   -0.5887   -2.4586 C.ar      1 <0>         0.1241
     11 O1         -0.6654   -1.4532   -2.4664 O.3       1 <0>        -0.4777
     12 N1         -1.8869   -0.6987   -4.8698 N.am      1 <0>        -0.6825
     13 C10        -1.2212   -1.8458   -4.9232 C.2       1 <0>         0.5855
     14 O2         -1.6258   -2.7958   -4.2805 O.2       1 <0>        -0.5264
     15 C11        -0.0038   -2.0588   -5.6962 C.2       1 <0>        -0.1919
     16 C12         0.6896   -3.1998   -5.4674 C.2       1 <0>        -0.0126
     17 C13         1.9092   -3.5396   -6.1691 C.2       1 <0>        -0.1089
     18 C14         2.9509   -4.1662   -5.6423 C.2       1 <0>        -0.1568
     19 C15         3.0709   -4.5999   -4.2115 C.3       1 <0>         0.1291
     20 H2          3.4511   -5.6313   -4.1936 H         1 <0>         0.0861
     21 C16         4.0775   -3.7113   -3.4762 C.3       1 <0>         0.1593
     22 H3          5.0840   -3.9501   -3.8262 H         1 <0>         0.0969
     23 C17         4.0064   -3.9606   -1.9872 C.2       1 <0>        -0.1646
     24 C18         3.1589   -3.2847   -1.2552 C.2       1 <0>        -0.0883
     25 C19         3.0296   -3.4606    0.2334 C.3       1 <0>        -0.0901
     26 H4          3.9990   -3.7542    0.6561 H         1 <0>         0.0724
     27 C20         2.6336   -2.1369    0.8846 C.3       1 <0>         0.1198
     28 H5          3.1074   -2.0780    1.8722 H         1 <0>         0.0574
     29 C21         1.1277   -1.9805    1.0514 C.3       1 <0>         0.1020
     30 H6          0.6011   -2.3664    0.1826 H         1 <0>         0.0761
     31 C22         0.7710   -0.4945    1.2287 C.3       1 <0>        -0.1302
     32 O3          0.6950   -2.6689    2.2322 O.3       1 <0>        -0.3827
     33 C23        -0.6408   -3.1708    2.1557 C.3       1 <0>         0.0292
     34 O4          3.1399   -1.0617    0.0835 O.3       1 <0>        -0.5512
     35 C24         2.0156   -4.5610    0.5375 C.3       1 <0>        -0.1334
     36 C25         4.9246   -4.9894   -1.3843 C.3       1 <0>        -0.1133
     37 O5          3.7960   -2.3392   -3.7487 O.3       1 <0>        -0.3364
     38 C26         4.8390   -1.4878   -3.7403 C.2       1 <0>         0.6511
     39 O6          5.9580   -1.9003   -3.5077 O.2       1 <0>        -0.5759
     40 N2          4.6419   -0.1782   -3.9900 N.am      1 <0>        -0.8251
     41 O7          1.8221   -4.5694   -3.5336 O.3       1 <0>        -0.3514
     42 C27         1.0881   -5.7930   -3.6122 C.3       1 <0>         0.0246
     43 C28         0.4633   -1.0448   -6.7029 C.3       1 <0>        -0.1079
     44 O8         -4.8554    2.0946   -2.3425 O.3       1 <0>        -0.4871
     45 N3         -3.6486    1.3462    0.0228 N.pl3     1 <0>        -0.7396
     46 C29        -4.5238    2.5210    0.0328 C.3       1 <0>         0.1503
     47 C30        -4.8633    2.8823    1.4559 C.2       1 <0>        -0.1775
     48 C31        -4.6265    4.0922    1.8988 C.2       1 <0>        -0.1688
     49 H7          1.0039    1.9039    0.0027 H         1 <0>         0.0511
     50 H8         -0.5459    1.8877   -0.8726 H         1 <0>         0.0505
     51 H9         -0.5289    1.8782    0.9072 H         1 <0>         0.0450
     52 H10        -1.4165   -1.6259    0.0464 H         1 <0>         0.0651
     53 H11        -1.9485   -0.1657    0.9032 H         1 <0>         0.0602
     54 H12        -3.8786    0.9973   -4.5129 H         1 <0>         0.1330
     55 H13        -0.9196   -2.3821   -2.3795 H         1 <0>         0.3854
     56 H14        -2.0728   -0.1917   -5.6934 H         1 <0>         0.4126
     57 H15         0.2514   -3.8848   -4.7423 H         1 <0>         0.1455
     58 H16         1.9867   -3.2711   -7.2314 H         1 <0>         0.1159
     59 H17         3.7910   -4.3810   -6.3137 H         1 <0>         0.1211
     60 H18         2.5074   -2.5641   -1.7475 H         1 <0>         0.1244
     61 H19         1.6748    0.0937    1.3598 H         1 <0>         0.0795
     62 H20         0.1395   -0.3864    2.1142 H         1 <0>         0.0609
     63 H21        -1.3313   -2.3429    1.9948 H         1 <0>         0.0426
     64 H22        -0.7176   -3.8744    1.3268 H         1 <0>         0.0421
     65 H23        -0.8922   -3.6778    3.0873 H         1 <0>         0.0851
     66 H24         4.1019   -1.0633   -0.0143 H         1 <0>         0.3773
     67 H25         2.3509   -5.4973    0.0915 H         1 <0>         0.0548
     68 H26         1.9259   -4.6842    1.6168 H         1 <0>         0.0644
     69 H27         1.0462   -4.2868    0.1212 H         1 <0>         0.0554
     70 H28         5.8572   -4.5122   -1.0833 H         1 <0>         0.0662
     71 H29         4.4470   -5.4359   -0.5121 H         1 <0>         0.0654
     72 H30         5.1344   -5.7651   -2.1207 H         1 <0>         0.0582
     73 H31         3.7486    0.1511   -4.1758 H         1 <0>         0.4083
     74 H32         5.3933    0.4352   -3.9840 H         1 <0>         0.4240
     75 H33         0.8814   -6.0262   -4.6567 H         1 <0>         0.0423
     76 H34         1.6748   -6.5978   -3.1694 H         1 <0>         0.0431
     77 H35         0.1480   -5.6882   -3.0704 H         1 <0>         0.0900
     78 H36         1.1227   -0.3264   -6.2158 H         1 <0>         0.0699
     79 H37         1.0041   -1.5499   -7.5032 H         1 <0>         0.0672
     80 H38        -0.3982   -0.5229   -7.1195 H         1 <0>         0.0579
     81 H39        -4.5831    3.0198   -2.4124 H         1 <0>         0.3780
     82 H40        -3.3821    0.9327    0.8588 H         1 <0>         0.3980
     83 H41        -4.0134    3.3584   -0.4428 H         1 <0>         0.0528
     84 H42        -5.4399    2.2962   -0.5134 H         1 <0>         0.0954
     85 H43        -5.3017    2.1437    2.1107 H         1 <0>         0.1121
     86 H44        -4.8698    4.3512    2.9187 H         1 <0>         0.1013
     87 H45        -4.1881    4.8308    1.2440 H         1 <0>         0.0986
@<TRIPOS>BOND
     1    1    2 1
     2    1   49 1
     3    1   50 1
     4    1   51 1
     5    2    3 1
     6    2   31 1
     7    2    4 1
     8    4    5 1
     9    4   52 1
    10    4   53 1
    11    5   10 ar
    12    5    6 ar
    13    6    7 ar
    14    6   45 1
    15    7    8 ar
    16    7   44 1
    17    8    9 ar
    18    8   54 1
    19    9   10 ar
    20    9   12 1
    21   10   11 1
    22   11   55 1
    23   12   13 am
    24   12   56 1
    25   13   14 2
    26   13   15 1
    27   15   16 2
    28   15   43 1
    29   16   17 1
    30   16   57 1
    31   17   18 2
    32   17   58 1
    33   18   19 1
    34   18   59 1
    35   19   20 1
    36   19   21 1
    37   19   41 1
    38   21   22 1
    39   21   23 1
    40   21   37 1
    41   23   24 2
    42   23   36 1
    43   24   25 1
    44   24   60 1
    45   25   26 1
    46   25   27 1
    47   25   35 1
    48   27   28 1
    49   27   29 1
    50   27   34 1
    51   29   30 1
    52   29   31 1
    53   29   32 1
    54   31   61 1
    55   31   62 1
    56   32   33 1
    57   33   63 1
    58   33   64 1
    59   33   65 1
    60   34   66 1
    61   35   67 1
    62   35   68 1
    63   35   69 1
    64   36   70 1
    65   36   71 1
    66   36   72 1
    67   37   38 1
    68   38   39 2
    69   38   40 am
    70   40   73 1
    71   40   74 1
    72   41   42 1
    73   42   75 1
    74   42   76 1
    75   42   77 1
    76   43   78 1
    77   43   79 1
    78   43   80 1
    79   44   81 1
    80   45   46 1
    81   45   82 1
    82   46   47 1
    83   46   83 1
    84   46   84 1
    85   47   48 2
    86   47   85 1
    87   48   86 1
    88   48   87 1
@<TRIPOS>MOLECULE
CHEMBL371380
   38    40     0     0     0
SMALL
USER_CHARGES

@<TRIPOS>ATOM
      1 C1         -0.0184    1.5028    0.0103 C.3       1 <0>        -0.0765
      2 C2          0.0021   -0.0041    0.0020 C.2       1 <0>         0.0914
      3 C3          0.0080   -0.8187   -1.1441 C.2       1 <0>        -0.1548
      4 C4          0.0287   -2.1384   -0.7122 C.2       1 <0>         0.1339
      5 N1          0.0350   -2.1113    0.6508 N.pl3     1 <0>        -0.4667
      6 H1          0.0492   -2.8848    1.2359 H         1 <0>         0.4410
      7 N2          0.0230   -0.7724    1.0584 N.2       1 <0>        -0.2812
      8 C5          0.0415   -3.3423   -1.5669 C.ar      1 <0>        -0.0632
      9 C6         -1.0433   -4.2214   -1.5552 C.ar      1 <0>        -0.0602
     10 C7         -1.0276   -5.3448   -2.3549 C.ar      1 <0>        -0.0742
     11 C8          0.0658   -5.6050   -3.1734 C.ar      1 <0>         0.1502
     12 C9          1.1474   -4.7370   -3.1911 C.ar      1 <0>        -0.1617
     13 C10         1.1395   -3.6035   -2.3968 C.ar      1 <0>         0.1683
     14 O1          2.1957   -2.7495   -2.4179 O.3       1 <0>        -0.4777
     15 O2          0.0749   -6.7141   -3.9586 O.3       1 <0>        -0.4839
     16 Cl1        -2.3765   -6.4374   -2.3391 Cl        1 <0>        -0.0448
     17 C11        -0.0055   -0.3548   -2.5523 C.ar      1 <0>        -0.0361
     18 C12        -1.1019   -0.6304   -3.3683 C.ar      1 <0>        -0.0675
     19 C13        -1.1114   -0.1970   -4.6776 C.ar      1 <0>        -0.1516
     20 C14        -0.0310    0.5129   -5.1832 C.ar      1 <0>         0.1264
     21 C15         1.0621    0.7890   -4.3736 C.ar      1 <0>        -0.2062
     22 C16         1.0757    0.3631   -3.0618 C.ar      1 <0>        -0.0512
     23 O3         -0.0433    0.9382   -6.4741 O.3       1 <0>        -0.3192
     24 C17         1.1009    1.6632   -6.9293 C.3       1 <0>         0.0272
     25 H2          1.0042    1.8801    0.0026 H         1 <0>         0.0792
     26 H3         -0.5455    1.8639   -0.8728 H         1 <0>         0.0800
     27 H4         -0.5286    1.8543    0.9071 H         1 <0>         0.0756
     28 H5         -1.8937   -4.0220   -0.9201 H         1 <0>         0.1445
     29 H6          1.9944   -4.9433   -3.8286 H         1 <0>         0.1508
     30 H7          2.8847   -2.9601   -1.7729 H         1 <0>         0.3949
     31 H8         -0.3018   -6.5762   -4.8384 H         1 <0>         0.4003
     32 H9         -1.9426   -1.1830   -2.9756 H         1 <0>         0.1233
     33 H10        -1.9602   -0.4105   -5.3103 H         1 <0>         0.1290
     34 H11         1.9012    1.3416   -4.7700 H         1 <0>         0.1273
     35 H12         1.9246    0.5821   -2.4310 H         1 <0>         0.1226
     36 H13         1.2250    2.5624   -6.3258 H         1 <0>         0.0558
     37 H14         1.9884    1.0374   -6.8355 H         1 <0>         0.0553
     38 H15         0.9621    1.9427   -7.9736 H         1 <0>         0.0997
@<TRIPOS>BOND
     1    1    2 1
     2    1   25 1
     3    1   26 1
     4    1   27 1
     5    2    7 2
     6    2    3 1
     7    3    4 2
     8    3   17 1
     9    4    5 1
    10    4    8 1
    11    5    6 1
    12    5    7 1
    13    8   13 ar
    14    8    9 ar
    15    9   10 ar
    16    9   28 1
    17   10   11 ar
    18   10   16 1
    19   11   12 ar
    20   11   15 1
    21   12   13 ar
    22   12   29 1
    23   13   14 1
    24   14   30 1
    25   15   31 1
    26   17   22 ar
    27   17   18 ar
    28   18   19 ar
    29   18   32 1
    30   19   20 ar
    31   19   33 1
    32   20   21 ar
    33   20   23 1
    34   21   22 ar
    35   21   34 1
    36   22   35 1
    37   23   24 1
    38   24   36 1
    39   24   37 1
    40   24   38 1
@<TRIPOS>MOLECULE
CHEMBL371380__1
   38    40     0     0     0
SMALL
USER_CHARGES

@<TRIPOS>ATOM
      1 C1         -0.0591    0.8717   -0.0643 C.3       1 <0>        -0.0964
      2 C2         -0.7615    1.4933   -1.2439 C.2       1 <0>         0.1040
      3 C3         -2.0663    1.8834   -1.2865 C.2       1 <0>        -0.1848
      4 C4         -2.3104    2.4142   -2.5782 C.2       1 <0>         0.1291
      5 N1         -1.1904    2.3367   -3.2635 N.2       1 <0>        -0.2546
      6 H1          0.7125    1.5979   -2.6960 H         1 <0>         0.4423
      7 N2         -0.2085    1.7678   -2.4436 N.pl3     1 <0>        -0.4682
      8 C5         -3.5987    2.9587   -3.0694 C.ar      1 <0>        -0.0359
      9 C6         -4.3175    3.8636   -2.2901 C.ar      1 <0>        -0.0498
     10 C7         -5.5164    4.3688   -2.7497 C.ar      1 <0>        -0.0723
     11 C8         -6.0101    3.9773   -3.9885 C.ar      1 <0>         0.1434
     12 C9         -5.3005    3.0775   -4.7692 C.ar      1 <0>        -0.1633
     13 C10        -4.0935    2.5704   -4.3184 C.ar      1 <0>         0.1557
     14 O1         -3.3946    1.6930   -5.0849 O.3       1 <0>        -0.4797
     15 O2         -7.1920    4.4775   -4.4357 O.3       1 <0>        -0.4840
     16 Cl1        -6.4106    5.4957   -1.7780 Cl        1 <0>        -0.0485
     17 C11        -3.0517    1.7729   -0.1826 C.ar      1 <0>        -0.0421
     18 C12        -4.1343    0.9030   -0.2975 C.ar      1 <0>        -0.0629
     19 C13        -5.0484    0.8021    0.7306 C.ar      1 <0>        -0.1473
     20 C14        -4.8911    1.5663    1.8785 C.ar      1 <0>         0.1289
     21 C15        -3.8139    2.4336    1.9960 C.ar      1 <0>        -0.2049
     22 C16        -2.8932    2.5347    0.9736 C.ar      1 <0>        -0.0706
     23 O3         -5.7939    1.4654    2.8895 O.3       1 <0>        -0.3174
     24 C17        -5.5713    2.2806    4.0418 C.3       1 <0>         0.0266
     25 H2         -0.1583   -0.2127   -0.1125 H         1 <0>         0.0845
     26 H3          0.9968    1.1413   -0.0868 H         1 <0>         0.0742
     27 H4         -0.5077    1.2369    0.8595 H         1 <0>         0.0888
     28 H5         -3.9364    4.1689   -1.3267 H         1 <0>         0.1442
     29 H6         -5.6874    2.7753   -5.7312 H         1 <0>         0.1490
     30 H7         -3.6211    0.7661   -4.9278 H         1 <0>         0.3932
     31 H8         -7.1053    5.2930   -4.9480 H         1 <0>         0.3975
     32 H9         -4.2576    0.3086   -1.1908 H         1 <0>         0.1251
     33 H10        -5.8876    0.1281    0.6421 H         1 <0>         0.1311
     34 H11        -3.6940    3.0270    2.8904 H         1 <0>         0.1288
     35 H12        -2.0528    3.2064    1.0674 H         1 <0>         0.1239
     36 H13        -6.3624    2.1035    4.7705 H         1 <0>         0.1005
     37 H14        -4.6072    2.0292    4.4840 H         1 <0>         0.0557
     38 H15        -5.5745    3.3308    3.7501 H         1 <0>         0.0562
@<TRIPOS>BOND
     1    1   25 1
     2    1   26 1
     3    1   27 1
     4    1    2 1
     5    2    3 2
     6    2    7 1
     7    3    4 1
     8    3   17 1
     9    4    5 2
    10    4    8 1
    11    5    7 1
    12    6    7 1
    13    8   13 ar
    14    8    9 ar
    15    9   10 ar
    16    9   28 1
    17   10   11 ar
    18   10   16 1
    19   11   12 ar
    20   11   15 1
    21   12   13 ar
    22   12   29 1
    23   13   14 1
    24   14   30 1
    25   15   31 1
    26   17   22 ar
    27   17   18 ar
    28   18   19 ar
    29   18   32 1
    30   19   20 ar
    31   19   33 1
    32   20   21 ar
    33   20   23 1
    34   21   22 ar
    35   21   34 1
    36   22   35 1
    37   23   24 1
    38   24   36 1
    39   24   37 1
    40   24   38 1
@<TRIPOS>MOLECULE
CHEMBL426446
   37    39     0     0     0
SMALL
USER_CHARGES

@<TRIPOS>ATOM
      1 C1         -0.2156    1.6614    0.3747 C.3       1 <0>         0.0293
      2 O1         -0.1393    0.2489    0.1723 O.3       1 <0>        -0.3227
      3 C2         -1.3129   -0.4347    0.1464 C.ar      1 <0>         0.1147
      4 C3         -2.5138    0.2443    0.3071 C.ar      1 <0>        -0.2035
      5 C4         -3.7065   -0.4460    0.2818 C.ar      1 <0>        -0.0364
      6 C5         -3.7065   -1.8290    0.0939 C.ar      1 <0>        -0.0047
      7 C6         -2.4978   -2.5079   -0.0677 C.ar      1 <0>        -0.0698
      8 C7         -1.3093   -1.8102   -0.0465 C.ar      1 <0>        -0.1528
      9 C8         -4.9850   -2.5738    0.0666 C.2       1 <0>        -0.1356
     10 C9         -5.4568   -3.5146    1.0160 C.2       1 <0>         0.0533
     11 N1         -6.6343   -3.9332    0.6070 N.2       1 <0>        -0.2725
     12 N2         -6.9718   -3.3690   -0.4952 N.pl3     1 <0>        -0.3707
     13 H1         -7.8008   -3.5321   -0.9717 H         1 <0>         0.4476
     14 C10        -5.9937   -2.4988   -0.8977 C.2       1 <0>         0.0048
     15 C11        -6.0020   -1.6615   -2.0973 C.2       1 <0>         0.5451
     16 O2         -6.9585   -1.6958   -2.8615 O.co2     1 <0>        -0.6885
     17 O3         -5.0525   -0.9261   -2.3374 O.co2     1 <0>        -0.6502
     18 C12        -4.7512   -3.9477    2.2459 C.ar      1 <0>        -0.0016
     19 C13        -4.1863   -3.0003    3.0978 C.ar      1 <0>        -0.0582
     20 C14        -3.5302   -3.4062    4.2418 C.ar      1 <0>        -0.0673
     21 C15        -3.4305   -4.7585    4.5471 C.ar      1 <0>         0.1264
     22 C16        -3.9901   -5.7066    3.7041 C.ar      1 <0>        -0.1629
     23 C17        -4.6557   -5.3076    2.5573 C.ar      1 <0>         0.1468
     24 O4         -5.2093   -6.2354    1.7335 O.3       1 <0>        -0.4792
     25 O5         -2.7824   -5.1526    5.6747 O.3       1 <0>        -0.4857
     26 Cl1        -2.8270   -2.2251    5.3021 Cl        1 <0>        -0.0582
     27 H2          0.7894    2.0833    0.3741 H         1 <0>         0.0932
     28 H3         -0.7996    2.1124   -0.4276 H         1 <0>         0.0545
     29 H4         -0.6949    1.8659    1.3321 H         1 <0>         0.0520
     30 H5         -2.5130    1.3145    0.4525 H         1 <0>         0.1221
     31 H6         -4.6399    0.0826    0.4076 H         1 <0>         0.1185
     32 H7         -2.4940   -3.5781   -0.2130 H         1 <0>         0.1191
     33 H8         -0.3738   -2.3342   -0.1759 H         1 <0>         0.1236
     34 H9         -4.2618   -1.9490    2.8625 H         1 <0>         0.1440
     35 H10        -3.9108   -6.7565    3.9445 H         1 <0>         0.1437
     36 H11        -4.6123   -6.5544    1.0429 H         1 <0>         0.3909
     37 H12        -3.3526   -5.2205    6.4527 H         1 <0>         0.3909
@<TRIPOS>BOND
     1    1    2 1
     2    1   27 1
     3    1   28 1
     4    1   29 1
     5    2    3 1
     6    3    8 ar
     7    3    4 ar
     8    4    5 ar
     9    4   30 1
    10    5    6 ar
    11    5   31 1
    12    6    7 ar
    13    6    9 1
    14    7    8 ar
    15    7   32 1
    16    8   33 1
    17    9   14 2
    18    9   10 1
    19   10   11 2
    20   10   18 1
    21   11   12 1
    22   12   13 1
    23   12   14 1
    24   14   15 1
    25   15   16 2
    26   15   17 1
    27   18   23 ar
    28   18   19 ar
    29   19   20 ar
    30   19   34 1
    31   20   21 ar
    32   20   26 1
    33   21   22 ar
    34   21   25 1
    35   22   23 ar
    36   22   35 1
    37   23   24 1
    38   24   36 1
    39   25   37 1
@<TRIPOS>MOLECULE
CHEMBL426446__1
   37    39     0     0     0
SMALL
USER_CHARGES

@<TRIPOS>ATOM
      1 C1         -0.0173    1.4248    0.0099 C.3       1 <0>         0.0295
      2 O1          0.0021   -0.0041    0.0020 O.3       1 <0>        -0.3242
      3 C2         -1.2002   -0.6374    0.0101 C.ar      1 <0>         0.1131
      4 C3         -2.3737    0.1045    0.0195 C.ar      1 <0>        -0.2050
      5 C4         -3.5955   -0.5347    0.0272 C.ar      1 <0>        -0.0180
      6 C5         -3.6515   -1.9287    0.0256 C.ar      1 <0>        -0.0021
      7 C6         -2.4702   -2.6709    0.0162 C.ar      1 <0>        -0.0745
      8 C7         -1.2521   -2.0248    0.0031 C.ar      1 <0>        -0.1569
      9 C8         -4.9616   -2.6189    0.0344 C.2       1 <0>        -0.0939
     10 C9         -5.4953   -3.4241    1.0348 C.2       1 <0>         0.0196
     11 N1         -6.7190   -3.8329    0.5965 N.pl3     1 <0>        -0.4037
     12 N2         -6.9819   -3.3592   -0.5652 N.2       1 <0>        -0.2536
     13 H1         -7.3152   -4.4097    1.0994 H         1 <0>         0.4319
     14 C10        -5.9949   -2.6035   -1.0080 C.2       1 <0>         0.0136
     15 C11        -5.9396   -1.8895   -2.2939 C.2       1 <0>         0.5579
     16 O2         -4.9553   -1.2221   -2.5812 O.co2     1 <0>        -0.6656
     17 O3         -6.8779   -1.9634   -3.0755 O.co2     1 <0>        -0.6760
     18 C12        -4.8592   -3.7696    2.3217 C.ar      1 <0>        -0.0278
     19 C13        -4.5010   -5.0915    2.5936 C.ar      1 <0>        -0.0676
     20 C14        -3.9067   -5.4102    3.7965 C.ar      1 <0>        -0.0715
     21 C15        -3.6631   -4.4187    4.7403 C.ar      1 <0>         0.1352
     22 C16        -4.0161   -3.1033    4.4784 C.ar      1 <0>        -0.1610
     23 C17        -4.6075   -2.7715    3.2718 C.ar      1 <0>         0.1611
     24 O4         -4.9484   -1.4824    3.0121 O.3       1 <0>        -0.4751
     25 O5         -3.0774   -4.7398    5.9237 O.3       1 <0>        -0.4864
     26 Cl1        -3.4618   -7.0541    4.1335 Cl        1 <0>        -0.0563
     27 H2          1.0053    1.8021    0.0021 H         1 <0>         0.0926
     28 H3         -0.5445    1.7859   -0.8732 H         1 <0>         0.0549
     29 H4         -0.5275    1.7763    0.9067 H         1 <0>         0.0514
     30 H5         -2.3296    1.1836    0.0211 H         1 <0>         0.1214
     31 H6         -4.5079    0.0430    0.0349 H         1 <0>         0.1191
     32 H7         -2.5098   -3.7502    0.0153 H         1 <0>         0.1179
     33 H8         -0.3373   -2.5987   -0.0087 H         1 <0>         0.1221
     34 H9         -4.6897   -5.8638    1.8627 H         1 <0>         0.1430
     35 H10        -3.8252   -2.3366    5.2147 H         1 <0>         0.1467
     36 H11        -5.8434   -1.2479    3.2935 H         1 <0>         0.3929
     37 H12        -2.1118   -4.6901    5.9110 H         1 <0>         0.3950
@<TRIPOS>BOND
     1    1    2 1
     2    1   27 1
     3    1   28 1
     4    1   29 1
     5    2    3 1
     6    3    8 ar
     7    3    4 ar
     8    4    5 ar
     9    4   30 1
    10    5    6 ar
    11    5   31 1
    12    6    7 ar
    13    6    9 1
    14    7    8 ar
    15    7   32 1
    16    8   33 1
    17    9   14 1
    18    9   10 2
    19   10   18 1
    20   10   11 1
    21   11   13 1
    22   11   12 1
    23   12   14 2
    24   14   15 1
    25   15   16 2
    26   15   17 1
    27   18   23 ar
    28   18   19 ar
    29   19   20 ar
    30   19   34 1
    31   20   21 ar
    32   20   26 1
    33   21   22 ar
    34   21   25 1
    35   22   23 ar
    36   22   35 1
    37   23   24 1
    38   24   36 1
    39   25   37 1
@<TRIPOS>MOLECULE
CHEMBL377045
   39    42     0     0     0
SMALL
USER_CHARGES

@<TRIPOS>ATOM
      1 C1         -0.0187    1.5258    0.0104 C.3       1 <0>        -0.1532
      2 C2          0.0021   -0.0041    0.0020 C.3       1 <0>        -0.1199
      3 C3          0.7421   -0.5109    1.2415 C.3       1 <0>        -0.1380
      4 C4          0.7628   -2.0407    1.2331 C.3       1 <0>         0.1051
      5 N1          1.4714   -2.5260    2.4200 N.pl3     1 <0>        -0.4479
      6 C5          2.8206   -2.7745    2.5180 C.ar      1 <0>         0.3211
      7 C6          3.0415   -3.2207    3.8315 C.ar      1 <0>        -0.1090
      8 C7          4.3537   -3.5506    4.2080 C.ar      1 <0>         0.5170
      9 N2          5.3221   -3.4256    3.3062 N.ar      1 <0>        -0.5922
     10 C8          5.0659   -3.0017    2.0823 C.ar      1 <0>         0.3722
     11 N3          3.8517   -2.6809    1.6857 N.ar      1 <0>        -0.5594
     12 N4          4.6324   -3.9958    5.4900 N.pl3     1 <0>        -0.8139
     13 N5          1.8415   -3.2244    4.4633 N.2       1 <0>        -0.3976
     14 C9          0.9136   -2.8099    3.6369 C.2       1 <0>         0.1968
     15 S1         -0.7961   -2.6475    4.0311 S.3       1 <0>         0.2839
     16 C10        -0.8948   -3.1527    5.7163 C.2       1 <0>         0.0834
     17 N6          0.0696   -3.5540    6.5141 N.2       1 <0>        -0.4324
     18 C11        -0.1532   -3.9143    7.7948 C.ar      1 <0>         0.0377
     19 C12         0.7692   -4.3628    8.7654 C.ar      1 <0>         0.2031
     20 N7          0.3804   -4.6756    9.9772 N.ar      1 <0>        -0.4676
     21 C13        -0.8759   -4.5998   10.3834 C.ar      1 <0>         0.1520
     22 C14        -1.8608   -4.1716    9.5107 C.ar      1 <0>        -0.0960
     23 C15        -1.4994   -3.8326    8.2286 C.ar      1 <0>        -0.1088
     24 S2         -2.3309   -3.2421    6.7773 S.3       1 <0>         0.1186
     25 Br1        -3.6635   -4.0548   10.0697 Br        1 <0>        -0.0102
     26 H1          1.0039    1.9031    0.0027 H         1 <0>         0.0553
     27 H2         -0.5459    1.8868   -0.8726 H         1 <0>         0.0590
     28 H3         -0.5289    1.8773    0.9072 H         1 <0>         0.0557
     29 H4         -1.0205   -0.3814    0.0098 H         1 <0>         0.0675
     30 H5          0.5123   -0.3556   -0.8948 H         1 <0>         0.0683
     31 H6          1.7647   -0.1336    1.2338 H         1 <0>         0.0750
     32 H7          0.2319   -0.1594    2.1383 H         1 <0>         0.0719
     33 H8         -0.2598   -2.4180    1.2409 H         1 <0>         0.0962
     34 H9          1.2730   -2.3923    0.3363 H         1 <0>         0.1071
     35 H10         5.8822   -2.9146    1.3806 H         1 <0>         0.2075
     36 H11         3.9171   -4.0827    6.1395 H         1 <0>         0.4196
     37 H12         5.5428   -4.2207    5.7382 H         1 <0>         0.4118
     38 H13         1.8135   -4.4498    8.5043 H         1 <0>         0.1772
     39 H14        -1.1333   -4.8724   11.3962 H         1 <0>         0.1833
@<TRIPOS>BOND
     1    1    2 1
     2    1   26 1
     3    1   27 1
     4    1   28 1
     5    2    3 1
     6    2   29 1
     7    2   30 1
     8    3    4 1
     9    3   31 1
    10    3   32 1
    11    4    5 1
    12    4   33 1
    13    4   34 1
    14    5   14 1
    15    5    6 1
    16    6   11 ar
    17    6    7 ar
    18    7    8 ar
    19    7   13 1
    20    8    9 ar
    21    8   12 1
    22    9   10 ar
    23   10   11 ar
    24   10   35 1
    25   12   36 1
    26   12   37 1
    27   13   14 2
    28   14   15 1
    29   15   16 1
    30   16   24 1
    31   16   17 2
    32   17   18 1
    33   18   23 ar
    34   18   19 ar
    35   19   20 ar
    36   19   38 1
    37   20   21 ar
    38   21   22 ar
    39   21   39 1
    40   22   23 ar
    41   22   25 1
    42   23   24 1
@<TRIPOS>MOLECULE
CHEMBL212133
   50    53     0     0     0
SMALL
USER_CHARGES

@<TRIPOS>ATOM
      1 C1         -0.0187    1.5258    0.0104 C.3       1 <0>        -0.1604
      2 C2          0.0021   -0.0041    0.0020 C.3       1 <0>         0.1024
      3 O1         -1.3386   -0.4987    0.0122 O.3       1 <0>        -0.7476
      4 P1         -1.6939   -2.0690    0.0071 P.3       1 <0>         2.3966
      5 O2         -1.0113   -2.7329    1.1401 O.2       1 <0>        -1.0141
      6 C3         -3.4965   -2.2846    0.1730 C.3       1 <0>        -0.7470
      7 C4         -3.9476   -1.7719    1.5421 C.3       1 <0>         0.1256
      8 N1         -5.3962   -1.9452    1.6754 N.pl3     1 <0>        -0.4472
      9 C5         -6.3619   -1.0349    1.3139 C.ar      1 <0>         0.3184
     10 C6         -7.5959   -1.6302    1.6240 C.ar      1 <0>        -0.1076
     11 C7         -8.7682   -0.9061    1.3528 C.ar      1 <0>         0.5182
     12 N2         -8.6554    0.3051    0.8169 N.ar      1 <0>        -0.5903
     13 C8         -7.4726    0.8235    0.5426 C.ar      1 <0>         0.3732
     14 N3         -6.3476    0.1811    0.7794 N.ar      1 <0>        -0.5614
     15 N4        -10.0139   -1.4421    1.6368 N.pl3     1 <0>        -0.8124
     16 N5         -7.3331   -2.8522    2.1501 N.2       1 <0>        -0.3939
     17 C9         -6.0378   -3.0449    2.1771 C.2       1 <0>         0.1967
     18 S1         -5.2413   -4.4988    2.7741 S.3       1 <0>         0.2888
     19 C10        -6.5723   -5.5380    3.2773 C.2       1 <0>         0.0811
     20 N6         -7.8649   -5.3060    3.2226 N.2       1 <0>        -0.4337
     21 C11        -8.7797   -6.2016    3.6479 C.ar      1 <0>         0.0373
     22 C12       -10.1880   -6.0988    3.6545 C.ar      1 <0>         0.2029
     23 N7        -10.9371   -7.0735    4.1088 N.ar      1 <0>        -0.4676
     24 C13       -10.4504   -8.2064    4.5872 C.ar      1 <0>         0.1518
     25 C14        -9.0823   -8.4101    4.6262 C.ar      1 <0>        -0.0954
     26 C15        -8.2570   -7.4147    4.1600 C.ar      1 <0>        -0.1097
     27 S2         -6.5078   -7.1786    3.9846 S.3       1 <0>         0.1251
     28 Br1        -8.3640  -10.0222    5.3053 Br        1 <0>        -0.0095
     29 O3         -1.1998   -2.7266   -1.3769 O.3       1 <0>        -0.7492
     30 C16         0.1770   -2.8134   -1.7495 C.3       1 <0>         0.1021
     31 C17         0.2936   -3.4900   -3.1168 C.3       1 <0>        -0.1610
     32 H1          1.0039    1.9031    0.0027 H         1 <0>         0.0794
     33 H2         -0.5459    1.8868   -0.8726 H         1 <0>         0.0666
     34 H3         -0.5289    1.8773    0.9072 H         1 <0>         0.0707
     35 H4          0.5123   -0.3556   -0.8948 H         1 <0>         0.0594
     36 H5          0.5293   -0.3651    0.8851 H         1 <0>         0.0794
     37 H6         -4.0034   -1.7218   -0.6108 H         1 <0>         0.1147
     38 H7         -3.7460   -3.3416    0.0806 H         1 <0>         0.1261
     39 H8         -3.4407   -2.3348    2.3259 H         1 <0>         0.1171
     40 H9         -3.6981   -0.7149    1.6345 H         1 <0>         0.1159
     41 H10        -7.4258    1.8109    0.1075 H         1 <0>         0.2091
     42 H11       -10.0834   -2.3272    2.0276 H         1 <0>         0.4201
     43 H12       -10.8165   -0.9322    1.4450 H         1 <0>         0.4125
     44 H13       -10.6561   -5.2010    3.2788 H         1 <0>         0.1766
     45 H14       -11.1209   -8.9725    4.9477 H         1 <0>         0.1835
     46 H15         0.6029   -1.8114   -1.8025 H         1 <0>         0.0603
     47 H16         0.7182   -3.3995   -1.0068 H         1 <0>         0.0798
     48 H17        -0.1323   -4.4919   -3.0639 H         1 <0>         0.0703
     49 H18        -0.2476   -2.9039   -3.8596 H         1 <0>         0.0660
     50 H19         1.3438   -3.5562   -3.4011 H         1 <0>         0.0803
@<TRIPOS>BOND
     1    1    2 1
     2    1   32 1
     3    1   33 1
     4    1   34 1
     5    2    3 1
     6    2   35 1
     7    2   36 1
     8    3    4 1
     9    4    5 2
    10    4    6 1
    11    4   29 1
    12    6    7 1
    13    6   37 1
    14    6   38 1
    15    7    8 1
    16    7   39 1
    17    7   40 1
    18    8   17 1
    19    8    9 1
    20    9   14 ar
    21    9   10 ar
    22   10   11 ar
    23   10   16 1
    24   11   12 ar
    25   11   15 1
    26   12   13 ar
    27   13   14 ar
    28   13   41 1
    29   15   42 1
    30   15   43 1
    31   16   17 2
    32   17   18 1
    33   18   19 1
    34   19   27 1
    35   19   20 2
    36   20   21 1
    37   21   26 ar
    38   21   22 ar
    39   22   23 ar
    40   22   44 1
    41   23   24 ar
    42   24   25 ar
    43   24   45 1
    44   25   26 ar
    45   25   28 1
    46   26   27 1
    47   29   30 1
    48   30   31 1
    49   30   46 1
    50   30   47 1
    51   31   48 1
    52   31   49 1
    53   31   50 1
@<TRIPOS>MOLECULE
CHEMBL362307
   27    29     0     0     0
SMALL
USER_CHARGES

@<TRIPOS>ATOM
      1 C1          0.0015    1.3825   -0.3902 C.ar      1 <0>        -0.1690
      2 C2          1.1653    2.0914   -0.2956 C.ar      1 <0>        -0.0224
      3 C3          2.3791    1.4190   -0.1508 C.ar      1 <0>        -0.1977
      4 C4          2.4036    0.0160   -0.1026 C.ar      1 <0>         0.1045
      5 C5          1.2134   -0.6917   -0.2004 C.ar      1 <0>        -0.1556
      6 C6          0.0180   -0.0090   -0.3432 C.ar      1 <0>         0.1723
      7 O1         -1.1470   -0.7011   -0.4381 O.3       1 <0>        -0.4901
      8 O2          3.6917   -0.3581    0.0403 O.3       1 <0>        -0.0840
      9 N1          4.5148    0.7899    0.0865 N.2       1 <0>        -0.2498
     10 C7          3.7767    1.8635   -0.0235 C.2       1 <0>         0.1732
     11 C8          4.2568    3.2641   -0.0213 C.ar      1 <0>        -0.0667
     12 C9          3.6196    4.2209    0.7690 C.ar      1 <0>        -0.0474
     13 C10         4.0689    5.5244    0.7688 C.ar      1 <0>        -0.0755
     14 C11         5.1563    5.8889   -0.0179 C.ar      1 <0>         0.1587
     15 C12         5.7947    4.9439   -0.8066 C.ar      1 <0>        -0.1612
     16 C13         5.3547    3.6309   -0.8078 C.ar      1 <0>         0.1697
     17 O3          5.9829    2.7031   -1.5751 O.3       1 <0>        -0.4802
     18 O4          5.5940    7.1749   -0.0141 O.3       1 <0>        -0.4820
     19 Cl1         3.2749    6.7139    1.7529 Cl        1 <0>        -0.0392
     20 H1         -0.9377    1.9047   -0.4977 H         1 <0>         0.1447
     21 H2          1.1458    3.1705   -0.3331 H         1 <0>         0.1398
     22 H3          1.2201   -1.7711   -0.1643 H         1 <0>         0.1483
     23 H4         -1.3957   -0.9301   -1.3441 H         1 <0>         0.4019
     24 H5          2.7745    3.9408    1.3804 H         1 <0>         0.1502
     25 H6          6.6385    5.2309   -1.4164 H         1 <0>         0.1554
     26 H7          5.6216    2.6215   -2.4684 H         1 <0>         0.3995
     27 H8          6.2672    7.3593    0.6551 H         1 <0>         0.4023
@<TRIPOS>BOND
     1    1    6 ar
     2    1    2 ar
     3    1   20 1
     4    2    3 ar
     5    2   21 1
     6    3   10 1
     7    3    4 ar
     8    4    5 ar
     9    4    8 1
    10    5    6 ar
    11    5   22 1
    12    6    7 1
    13    7   23 1
    14    8    9 1
    15    9   10 2
    16   10   11 1
    17   11   16 ar
    18   11   12 ar
    19   12   13 ar
    20   12   24 1
    21   13   14 ar
    22   13   19 1
    23   14   15 ar
    24   14   18 1
    25   15   16 ar
    26   15   25 1
    27   16   17 1
    28   17   26 1
    29   18   27 1
@<TRIPOS>MOLECULE
CHEMBL1213898
   54    58     0     0     0
SMALL
USER_CHARGES

@<TRIPOS>ATOM
      1 C1          0.6843    0.1992   -1.1862 C.ar      1 <0>        -0.0306
      2 C2          1.8738    0.9085   -1.1906 C.ar      1 <0>         0.0380
      3 C3          2.3840    1.4165    0.0016 C.ar      1 <0>         0.0789
      4 C4          1.7013    1.2109    1.1898 C.ar      1 <0>        -0.0859
      5 C5          0.5145    0.5024    1.1941 C.ar      1 <0>        -0.0212
      6 C6          0.0023   -0.0044    0.0059 C.ar      1 <0>        -0.1122
      7 S1         -1.5115   -0.9061    0.0123 S.3       1 <0>         0.1394
      8 C7         -2.7480    0.3380    0.1803 C.2       1 <0>         0.2355
      9 N1         -2.5246    1.6293    0.1726 N.2       1 <0>        -0.4472
     10 C8         -3.6992    2.2904    0.3236 C.ar      1 <0>        -0.0985
     11 C9         -4.0656    3.6449    0.3884 C.ar      1 <0>         0.5093
     12 N2         -5.3498    3.9471    0.5479 N.ar      1 <0>        -0.5917
     13 C10        -6.2675    3.0023    0.6442 C.ar      1 <0>         0.3632
     14 N3         -5.9701    1.7208    0.5888 N.ar      1 <0>        -0.5564
     15 C11        -4.7121    1.3236    0.4311 C.ar      1 <0>         0.3135
     16 N4         -4.0875    0.1017    0.3327 N.pl3     1 <0>        -0.4473
     17 C12        -4.7364   -1.2107    0.3848 C.3       1 <0>         0.1095
     18 C13        -4.7953   -1.6933    1.8355 C.3       1 <0>        -0.1303
     19 C14        -5.4729   -3.0639    1.8900 C.3       1 <0>        -0.0260
     20 C15        -5.5309   -3.5392    3.3189 C.2       1 <0>        -0.0190
     21 C16        -6.6349   -3.9271    3.9992 C.2       1 <0>        -0.0465
     22 N5         -6.2132   -4.2685    5.2388 N.pl3     1 <0>        -0.2912
     23 N6         -4.9390   -4.0951    5.2934 N.2       1 <0>        -0.0798
     24 N7         -4.5006   -3.6663    4.1626 N.2       1 <0>        -0.2595
     25 C17        -7.0613   -4.7520    6.3311 C.3       1 <0>         0.1193
     26 C18        -6.5255   -6.0926    6.8376 C.3       1 <0>        -0.1368
     27 C19        -7.4113   -6.5976    7.9784 C.3       1 <0>         0.0808
     28 O1         -6.9109   -7.8497    8.4516 O.3       1 <0>        -0.5713
     29 N8         -3.1097    4.6431    0.2887 N.pl3     1 <0>        -0.8182
     30 Br1        -0.4138    0.2242    2.8179 Br        1 <0>        -0.0001
     31 O2          3.5537    2.0690   -0.2677 O.3       1 <0>        -0.2994
     32 C20         3.9617    1.6053   -1.5683 C.3       1 <0>         0.2113
     33 O3          2.7229    1.2426   -2.2062 O.3       1 <0>        -0.2998
     34 H1          0.2850   -0.1915   -2.1105 H         1 <0>         0.1560
     35 H2          2.0974    1.6046    2.1142 H         1 <0>         0.1534
     36 H3         -7.3000    3.2915    0.7736 H         1 <0>         0.2047
     37 H4         -5.7480   -1.1320   -0.0132 H         1 <0>         0.1042
     38 H5         -4.1655   -1.9222   -0.2119 H         1 <0>         0.0987
     39 H6         -3.7836   -1.7720    2.2336 H         1 <0>         0.0844
     40 H7         -5.3661   -0.9818    2.4322 H         1 <0>         0.0725
     41 H8         -6.4845   -2.9852    1.4919 H         1 <0>         0.0859
     42 H9         -4.9020   -3.7754    1.2933 H         1 <0>         0.0876
     43 H10        -7.6485   -3.9573    3.6276 H         1 <0>         0.1906
     44 H11        -7.0541   -4.0270    7.1449 H         1 <0>         0.1029
     45 H12        -8.0812   -4.8817    5.9691 H         1 <0>         0.1091
     46 H13        -6.5328   -6.8177    6.0238 H         1 <0>         0.0799
     47 H14        -5.5056   -5.9629    7.1997 H         1 <0>         0.0909
     48 H15        -7.4041   -5.8726    8.7923 H         1 <0>         0.0524
     49 H16        -8.4312   -6.7273    7.6164 H         1 <0>         0.0506
     50 H17        -7.4250   -8.2299    9.1770 H         1 <0>         0.3861
     51 H18        -2.1753    4.4100    0.1728 H         1 <0>         0.4177
     52 H19        -3.3750    5.5750    0.3349 H         1 <0>         0.4104
     53 H20         4.4579    2.4030   -2.1211 H         1 <0>         0.1395
     54 H21         4.6146    0.7371   -1.4780 H         1 <0>         0.0928
@<TRIPOS>BOND
     1    1    6 ar
     2    1    2 ar
     3    1   34 1
     4    2   33 1
     5    2    3 ar
     6    3    4 ar
     7    3   31 1
     8    4    5 ar
     9    4   35 1
    10    5    6 ar
    11    5   30 1
    12    6    7 1
    13    7    8 1
    14    8   16 1
    15    8    9 2
    16    9   10 1
    17   10   15 ar
    18   10   11 ar
    19   11   12 ar
    20   11   29 1
    21   12   13 ar
    22   13   14 ar
    23   13   36 1
    24   14   15 ar
    25   15   16 1
    26   16   17 1
    27   17   18 1
    28   17   37 1
    29   17   38 1
    30   18   19 1
    31   18   39 1
    32   18   40 1
    33   19   20 1
    34   19   41 1
    35   19   42 1
    36   20   24 1
    37   20   21 2
    38   21   22 1
    39   21   43 1
    40   22   23 1
    41   22   25 1
    42   23   24 2
    43   25   26 1
    44   25   44 1
    45   25   45 1
    46   26   27 1
    47   26   46 1
    48   26   47 1
    49   27   28 1
    50   27   48 1
    51   27   49 1
    52   28   50 1
    53   29   51 1
    54   29   52 1
    55   31   32 1
    56   32   33 1
    57   32   53 1
    58   32   54 1
@<TRIPOS>MOLECULE
CHEMBL1213899
   57    61     0     0     0
SMALL
USER_CHARGES

@<TRIPOS>ATOM
      1 C1          0.6843    0.1992   -1.1862 C.ar      1 <0>        -0.0308
      2 C2          1.8738    0.9085   -1.1906 C.ar      1 <0>         0.0391
      3 C3          2.3840    1.4165    0.0016 C.ar      1 <0>         0.0791
      4 C4          1.7013    1.2109    1.1898 C.ar      1 <0>        -0.0857
      5 C5          0.5145    0.5024    1.1941 C.ar      1 <0>        -0.0205
      6 C6          0.0023   -0.0044    0.0059 C.ar      1 <0>        -0.1116
      7 S1         -1.5115   -0.9061    0.0123 S.3       1 <0>         0.1355
      8 C7         -2.7480    0.3380    0.1803 C.2       1 <0>         0.2326
      9 N1         -2.5246    1.6293    0.1726 N.2       1 <0>        -0.4464
     10 C8         -3.6992    2.2904    0.3236 C.ar      1 <0>        -0.0998
     11 C9         -4.0656    3.6449    0.3884 C.ar      1 <0>         0.5094
     12 N2         -5.3498    3.9471    0.5479 N.ar      1 <0>        -0.5913
     13 C10        -6.2675    3.0023    0.6442 C.ar      1 <0>         0.3649
     14 N3         -5.9701    1.7208    0.5888 N.ar      1 <0>        -0.5552
     15 C11        -4.7121    1.3236    0.4311 C.ar      1 <0>         0.3145
     16 N4         -4.0875    0.1017    0.3327 N.pl3     1 <0>        -0.4474
     17 C12        -4.7364   -1.2107    0.3848 C.3       1 <0>         0.1093
     18 C13        -4.7953   -1.6933    1.8355 C.3       1 <0>        -0.1353
     19 C14        -5.4729   -3.0639    1.8900 C.3       1 <0>        -0.1080
     20 C15        -5.5318   -3.5465    3.3407 C.3       1 <0>        -0.0300
     21 C16        -6.1992   -4.8965    3.3943 C.2       1 <0>        -0.0180
     22 C17        -5.6984   -6.0262    3.9465 C.2       1 <0>        -0.0494
     23 N5         -6.6364   -6.9839    3.7621 N.pl3     1 <0>        -0.2915
     24 N6         -7.6327   -6.4581    3.1395 N.2       1 <0>        -0.0802
     25 N7         -7.4057   -5.2128    2.9106 N.2       1 <0>        -0.2619
     26 C18        -6.5351   -8.3795    4.1960 C.3       1 <0>         0.1196
     27 C19        -7.7439   -8.7324    5.0649 C.3       1 <0>        -0.1373
     28 C20        -7.6381  -10.1900    5.5181 C.3       1 <0>         0.0809
     29 O1         -8.7672  -10.5196    6.3296 O.3       1 <0>        -0.5714
     30 N8         -3.1097    4.6431    0.2887 N.pl3     1 <0>        -0.8184
     31 Br1        -0.4138    0.2242    2.8179 Br        1 <0>        -0.0045
     32 O2          3.5537    2.0690   -0.2677 O.3       1 <0>        -0.2991
     33 C21         3.9617    1.6053   -1.5683 C.3       1 <0>         0.2112
     34 O3          2.7229    1.2426   -2.2062 O.3       1 <0>        -0.2995
     35 H1          0.2850   -0.1915   -2.1105 H         1 <0>         0.1561
     36 H2          2.0974    1.6046    2.1142 H         1 <0>         0.1536
     37 H3         -7.3000    3.2915    0.7736 H         1 <0>         0.2055
     38 H4         -5.7480   -1.1320   -0.0132 H         1 <0>         0.1044
     39 H5         -4.1655   -1.9222   -0.2119 H         1 <0>         0.0962
     40 H6         -3.7836   -1.7720    2.2336 H         1 <0>         0.0747
     41 H7         -5.3661   -0.9818    2.4322 H         1 <0>         0.0751
     42 H8         -6.4845   -2.9852    1.4919 H         1 <0>         0.0776
     43 H9         -4.9020   -3.7754    1.2933 H         1 <0>         0.0674
     44 H10        -4.5201   -3.6252    3.7388 H         1 <0>         0.0817
     45 H11        -6.1026   -2.8350    3.9374 H         1 <0>         0.0824
     46 H12        -4.7422   -6.1404    4.4355 H         1 <0>         0.1898
     47 H13        -6.5130   -9.0309    3.3223 H         1 <0>         0.1033
     48 H14        -5.6206   -8.5150    4.7734 H         1 <0>         0.1087
     49 H15        -7.7660   -8.0810    5.9386 H         1 <0>         0.0795
     50 H16        -8.6584   -8.5969    4.4875 H         1 <0>         0.0911
     51 H17        -7.6161  -10.8414    4.6444 H         1 <0>         0.0526
     52 H18        -6.7236  -10.3255    6.0955 H         1 <0>         0.0504
     53 H19        -8.7664  -11.4309    6.6531 H         1 <0>         0.3861
     54 H20        -2.1753    4.4100    0.1728 H         1 <0>         0.4174
     55 H21        -3.3750    5.5750    0.3349 H         1 <0>         0.4105
     56 H22         4.4579    2.4030   -2.1211 H         1 <0>         0.1399
     57 H23         4.6146    0.7371   -1.4780 H         1 <0>         0.0930
@<TRIPOS>BOND
     1    1    6 ar
     2    1    2 ar
     3    1   35 1
     4    2   34 1
     5    2    3 ar
     6    3    4 ar
     7    3   32 1
     8    4    5 ar
     9    4   36 1
    10    5    6 ar
    11    5   31 1
    12    6    7 1
    13    7    8 1
    14    8   16 1
    15    8    9 2
    16    9   10 1
    17   10   15 ar
    18   10   11 ar
    19   11   12 ar
    20   11   30 1
    21   12   13 ar
    22   13   14 ar
    23   13   37 1
    24   14   15 ar
    25   15   16 1
    26   16   17 1
    27   17   18 1
    28   17   38 1
    29   17   39 1
    30   18   19 1
    31   18   40 1
    32   18   41 1
    33   19   20 1
    34   19   42 1
    35   19   43 1
    36   20   21 1
    37   20   44 1
    38   20   45 1
    39   21   25 1
    40   21   22 2
    41   22   23 1
    42   22   46 1
    43   23   24 1
    44   23   26 1
    45   24   25 2
    46   26   27 1
    47   26   47 1
    48   26   48 1
    49   27   28 1
    50   27   49 1
    51   27   50 1
    52   28   29 1
    53   28   51 1
    54   28   52 1
    55   29   53 1
    56   30   54 1
    57   30   55 1
    58   32   33 1
    59   33   34 1
    60   33   56 1
    61   33   57 1
@<TRIPOS>MOLECULE
CHEMBL109480
   85    86     0     0     0
SMALL
USER_CHARGES

@<TRIPOS>ATOM
      1 C1         -1.2800    1.7819   -0.9304 C.3       1 <0>        -0.1391
      2 C2         -0.9342    0.2901   -1.0056 C.3       1 <0>        -0.1018
      3 H1         -1.7564   -0.2918   -0.6095 H         1 <0>         0.0901
      4 C3         -0.6725   -0.0847   -2.4661 C.3       1 <0>        -0.1300
      5 C4         -1.9444   -0.4896   -3.1987 C.3       1 <0>         0.1043
      6 H2         -2.1341    0.2297   -4.0017 H         1 <0>         0.0908
      7 C5         -1.7814   -1.8802   -3.8197 C.3       1 <0>         0.0765
      8 H3         -1.8067   -2.6341   -3.0359 H         1 <0>         0.0685
      9 C6         -2.9237   -2.1388   -4.8110 C.3       1 <0>        -0.0878
     10 H4         -3.4940   -1.2245   -4.9340 H         1 <0>         0.0888
     11 C7         -3.7772   -3.2720   -4.3216 C.2       1 <0>        -0.1476
     12 C8         -5.0549   -3.1792   -4.0657 C.2       1 <0>        -0.1043
     13 C9         -5.7902   -4.3986   -3.5505 C.3       1 <0>         0.1378
     14 H5         -5.5244   -5.2590   -4.1609 H         1 <0>         0.0978
     15 C10        -5.3940   -4.6630   -2.0950 C.3       1 <0>         0.1047
     16 H6         -4.9838   -5.6742   -2.0162 H         1 <0>         0.0918
     17 C11        -6.5918   -4.5383   -1.1944 C.2       1 <0>        -0.1246
     18 C12        -6.4935   -4.0910    0.0581 C.2       1 <0>        -0.1225
     19 C13        -5.2151   -3.7314    0.6390 C.2       1 <0>        -0.0260
     20 C14        -5.0502   -2.6929    1.4839 C.2       1 <0>        -0.1720
     21 C15        -3.6922   -2.4189    1.9679 C.2       1 <0>         0.5236
     22 O1         -2.8544   -3.2892    1.7711 O.2       1 <0>        -0.4923
     23 N1         -3.3563   -1.3225    2.6091 N.2       1 <0>        -0.5245
     24 C16        -2.2518   -0.6353    2.4375 C.2       1 <0>         0.2771
     25 C17        -2.0167    0.4867    3.2672 C.2       1 <0>        -0.2432
     26 C18        -0.9035    1.2487    3.1110 C.2       1 <0>         0.1735
     27 O2         -0.7219    2.3251    3.9094 O.3       1 <0>        -0.4523
     28 C19         0.1168    0.9303    2.1051 C.2       1 <0>         0.1840
     29 C20         0.0444   -0.2995    1.2586 C.3       1 <0>        -0.0682
     30 C21         0.3419    0.0300   -0.1968 C.3       1 <0>        -0.1009
     31 C22        -1.2687   -1.0085    1.3983 C.2       1 <0>         0.3476
     32 O3         -1.5103   -1.9075    0.6284 O.2       1 <0>        -0.3765
     33 N2          1.1166    1.7362    1.9613 N.2       1 <0>        -0.4419
     34 C23         1.2343    2.9178    2.8193 C.3       1 <0>         0.0612
     35 C24         2.4711    3.6917    2.4416 C.2       1 <0>        -0.1455
     36 C25         2.3795    4.9602    2.1276 C.2       1 <0>        -0.1802
     37 C26        -6.2079   -1.8390    1.9141 C.3       1 <0>        -0.1050
     38 O4         -4.3861   -3.7198   -1.7241 O.3       1 <0>        -0.3410
     39 C27        -3.1206   -4.3104   -1.4211 C.3       1 <0>        -0.0053
     40 O5         -7.1943   -4.1617   -3.6400 O.3       1 <0>        -0.3452
     41 C28        -7.8034   -4.5233   -4.7850 C.2       1 <0>         0.6481
     42 O6         -7.1585   -5.0265   -5.6835 O.2       1 <0>        -0.5685
     43 N3         -9.1284   -4.3271   -4.9345 N.am      1 <0>        -0.8257
     44 C29        -5.8184   -1.8968   -4.2741 C.3       1 <0>        -0.1100
     45 C30        -2.3152   -2.5259   -6.1659 C.3       1 <0>        -0.1433
     46 O7         -0.5351   -1.9529   -4.5160 O.3       1 <0>        -0.5576
     47 O8         -3.0643   -0.4966   -2.3149 O.3       1 <0>        -0.3726
     48 C31        -3.2649   -1.7405   -1.6407 C.3       1 <0>        -0.0203
     49 H7         -0.4204    2.3707   -1.2508 H         1 <0>         0.0528
     50 H8         -2.1276    1.9917   -1.5828 H         1 <0>         0.0599
     51 H9         -1.5377    2.0438    0.0957 H         1 <0>         0.0411
     52 H10        -0.2233    0.7745   -2.9737 H         1 <0>         0.0672
     53 H11         0.0426   -0.9105   -2.4915 H         1 <0>         0.0738
     54 H12        -3.3053   -4.2486   -4.1710 H         1 <0>         0.0985
     55 H13        -7.5735   -4.8361   -1.5580 H         1 <0>         0.1335
     56 H14        -7.4011   -4.0076    0.6520 H         1 <0>         0.1247
     57 H15        -4.3384   -4.3398    0.4155 H         1 <0>         0.1332
     58 H16        -2.7358    0.7290    4.0358 H         1 <0>         0.1563
     59 H17         0.8886   -0.8029   -0.6547 H         1 <0>         0.0793
     60 H18         0.9797    0.9195   -0.2536 H         1 <0>         0.0950
     61 H19         0.8324   -0.9904    1.6041 H         1 <0>         0.1364
     62 H20         0.3561    3.5503    2.6892 H         1 <0>         0.0937
     63 H21         1.3055    2.6048    3.8609 H         1 <0>         0.1001
     64 H22         3.4328    3.2005    2.4299 H         1 <0>         0.1136
     65 H23         3.2659    5.5148    1.8569 H         1 <0>         0.1026
     66 H24         1.4178    5.4514    2.1393 H         1 <0>         0.0959
     67 H25        -6.6517   -2.2570    2.8177 H         1 <0>         0.0684
     68 H26        -5.8576   -0.8268    2.1161 H         1 <0>         0.0684
     69 H27        -6.9550   -1.8134    1.1208 H         1 <0>         0.0657
     70 H28        -2.4578   -3.5539   -1.0011 H         1 <0>         0.1118
     71 H29        -3.2586   -5.1144   -0.6981 H         1 <0>         0.0517
     72 H30        -2.6802   -4.7135   -2.3330 H         1 <0>         0.0438
     73 H31        -9.6432   -3.9254   -4.2172 H         1 <0>         0.4089
     74 H32        -9.5672   -4.5876   -5.7594 H         1 <0>         0.4267
     75 H33        -6.2807   -1.9055   -5.2612 H         1 <0>         0.0581
     76 H34        -6.5918   -1.8064   -3.5114 H         1 <0>         0.0673
     77 H35        -5.1349   -1.0510   -4.2004 H         1 <0>         0.0719
     78 H36        -1.7129   -3.4268   -6.0496 H         1 <0>         0.0524
     79 H37        -3.1146   -2.7133   -6.8829 H         1 <0>         0.0573
     80 H38        -1.6862   -1.7124   -6.5274 H         1 <0>         0.0690
     81 H39        -0.3676   -2.8085   -4.9342 H         1 <0>         0.3786
     82 H40        -2.4593   -1.8993   -0.9239 H         1 <0>         0.0630
     83 H41        -4.2197   -1.7191   -1.1153 H         1 <0>         0.0839
     84 H42        -3.2688   -2.5518   -2.3686 H         1 <0>         0.0998
     85 H43        -1.4327    2.4639    4.5502 H         1 <0>         0.4053
@<TRIPOS>BOND
     1    1    2 1
     2    1   49 1
     3    1   50 1
     4    1   51 1
     5    2    3 1
     6    2   30 1
     7    2    4 1
     8    4    5 1
     9    4   52 1
    10    4   53 1
    11    5    6 1
    12    5    7 1
    13    5   47 1
    14    7    8 1
    15    7    9 1
    16    7   46 1
    17    9   10 1
    18    9   11 1
    19    9   45 1
    20   11   12 2
    21   11   54 1
    22   12   13 1
    23   12   44 1
    24   13   14 1
    25   13   15 1
    26   13   40 1
    27   15   16 1
    28   15   17 1
    29   15   38 1
    30   17   18 2
    31   17   55 1
    32   18   19 1
    33   18   56 1
    34   19   20 2
    35   19   57 1
    36   20   21 1
    37   20   37 1
    38   21   22 2
    39   21   23 1
    40   23   24 2
    41   24   31 1
    42   24   25 1
    43   25   26 2
    44   25   58 1
    45   26   27 1
    46   26   28 1
    47   27   85 1
    48   28   33 2
    49   28   29 1
    50   29   30 1
    51   29   31 1
    52   29   61 1
    53   30   59 1
    54   30   60 1
    55   31   32 2
    56   33   34 1
    57   34   35 1
    58   34   62 1
    59   34   63 1
    60   35   36 2
    61   35   64 1
    62   36   65 1
    63   36   66 1
    64   37   67 1
    65   37   68 1
    66   37   69 1
    67   38   39 1
    68   39   70 1
    69   39   71 1
    70   39   72 1
    71   40   41 1
    72   41   42 2
    73   41   43 am
    74   43   73 1
    75   43   74 1
    76   44   75 1
    77   44   76 1
    78   44   77 1
    79   45   78 1
    80   45   79 1
    81   45   80 1
    82   46   81 1
    83   47   48 1
    84   48   82 1
    85   48   83 1
    86   48   84 1
@<TRIPOS>MOLECULE
CHEMBL109480__1
   85    86     0     0     0
SMALL
USER_CHARGES

@<TRIPOS>ATOM
      1 C1          1.3987    0.9951    0.7204 C.3       1 <0>        -0.1423
      2 C2          1.3347   -0.4373    0.1776 C.3       1 <0>        -0.1006
      3 H1          0.3070   -0.7768    0.1740 H         1 <0>         0.0938
      4 C3          1.9054   -0.4548   -1.2423 C.3       1 <0>        -0.1300
      5 C4          0.8474   -0.1609   -2.2971 C.3       1 <0>         0.1045
      6 H2          1.1056    0.7732   -2.8061 H         1 <0>         0.0914
      7 C5          0.8048   -1.2853   -3.3363 C.3       1 <0>         0.0767
      8 H3          0.3460   -2.1689   -2.8979 H         1 <0>         0.0683
      9 C6         -0.0183   -0.8341   -4.5500 C.3       1 <0>        -0.0875
     10 H4         -0.2575    0.2179   -4.4392 H         1 <0>         0.0891
     11 C7         -1.2513   -1.6807   -4.6736 C.2       1 <0>        -0.1485
     12 C8         -2.4726   -1.2177   -4.6470 C.2       1 <0>        -0.1034
     13 C9         -3.6282   -2.1902   -4.7558 C.3       1 <0>         0.1378
     14 H5         -3.4365   -2.8809   -5.5742 H         1 <0>         0.0979
     15 C10        -3.7674   -2.9744   -3.4478 C.3       1 <0>         0.1048
     16 H6         -3.6880   -4.0439   -3.6641 H         1 <0>         0.0916
     17 C11        -5.0976   -2.6920   -2.8058 C.2       1 <0>        -0.1258
     18 C12        -5.2573   -2.6787   -1.4819 C.2       1 <0>        -0.1215
     19 C13        -4.1607   -2.9728   -0.5807 C.2       1 <0>        -0.0281
     20 C14        -3.9791   -2.3413    0.5974 C.2       1 <0>        -0.1707
     21 C15        -2.8041   -2.7129    1.3941 C.2       1 <0>         0.5242
     22 O1         -2.2134   -3.7306    1.0575 O.2       1 <0>        -0.4951
     23 N1         -2.3898   -2.0330    2.4393 N.2       1 <0>        -0.5273
     24 C16        -1.1414   -1.7623    2.7390 C.2       1 <0>         0.2813
     25 C17        -0.8684   -1.0769    3.9465 C.2       1 <0>        -0.2602
     26 C18         0.4036   -0.7469    4.2890 C.2       1 <0>         0.2482
     27 O2          0.6246   -0.0744    5.4414 O.3       1 <0>        -0.4377
     28 C19         1.5500   -1.1099    3.4474 C.2       1 <0>         0.1847
     29 C20         1.4019   -1.9443    2.2162 C.3       1 <0>        -0.1243
     30 C21         2.1942   -1.3476    1.0624 C.3       1 <0>        -0.1189
     31 C22        -0.0340   -2.1518    1.8402 C.2       1 <0>         0.3523
     32 O3         -0.2705   -2.6527    0.7667 O.2       1 <0>        -0.3781
     33 N2          2.7264   -0.7040    3.7958 N.2       1 <0>        -0.4362
     34 C23         3.9164   -1.2751    3.1601 C.3       1 <0>         0.0393
     35 C24         4.7712   -1.9453    4.2046 C.2       1 <0>        -0.1480
     36 C25         5.1163   -3.2009    4.0616 C.2       1 <0>        -0.1774
     37 C26        -4.9364   -1.2905    1.0809 C.3       1 <0>        -0.1053
     38 O4         -2.6988   -2.5932   -2.5782 O.3       1 <0>        -0.3407
     39 C27        -1.7919   -3.6542   -2.2721 C.3       1 <0>        -0.0051
     40 O5         -4.8242   -1.4572   -5.0163 O.3       1 <0>        -0.3450
     41 C28        -5.1411   -1.2434   -6.3073 C.2       1 <0>         0.6482
     42 O6         -4.4203   -1.6686   -7.1883 O.2       1 <0>        -0.5688
     43 N3         -6.2578   -0.5578   -6.6224 N.am      1 <0>        -0.8255
     44 C29        -2.7640    0.2551   -4.5174 C.3       1 <0>        -0.1103
     45 C30         0.8355   -1.0149   -5.8126 C.3       1 <0>        -0.1434
     46 O7          2.1330   -1.5958   -3.7637 O.3       1 <0>        -0.5584
     47 O8         -0.4421   -0.0188   -1.7036 O.3       1 <0>        -0.3722
     48 C31        -1.1644   -1.2458   -1.5820 C.3       1 <0>        -0.0206
     49 H7          2.4401    1.3061    0.8031 H         1 <0>         0.0507
     50 H8          0.8722    1.6651    0.0407 H         1 <0>         0.0636
     51 H9          0.9292    1.0324    1.7034 H         1 <0>         0.0466
     52 H10         2.6993    0.2953   -1.3105 H         1 <0>         0.0672
     53 H11         2.3449   -1.4376   -1.4294 H         1 <0>         0.0729
     54 H12        -1.1274   -2.7613   -4.8002 H         1 <0>         0.0985
     55 H13        -5.9698   -2.5085   -3.4303 H         1 <0>         0.1335
     56 H14        -6.2420   -2.4498   -1.0804 H         1 <0>         0.1248
     57 H15        -3.4557   -3.7632   -0.8396 H         1 <0>         0.1329
     58 H16        -1.6893   -0.8218    4.6005 H         1 <0>         0.1621
     59 H17         2.6056   -2.1557    0.4461 H         1 <0>         0.0847
     60 H18         3.0357   -0.7634    1.4522 H         1 <0>         0.0885
     61 H19         1.8351   -2.9365    2.4303 H         1 <0>         0.1313
     62 H20         3.6127   -2.0090    2.4135 H         1 <0>         0.0723
     63 H21         4.4871   -0.4814    2.6780 H         1 <0>         0.1082
     64 H22         5.0994   -1.3904    5.0711 H         1 <0>         0.1198
     65 H23         5.7289   -3.6812    4.8101 H         1 <0>         0.1071
     66 H24         4.7882   -3.7558    3.1950 H         1 <0>         0.0969
     67 H25        -5.7233   -1.7599    1.6714 H         1 <0>         0.0687
     68 H26        -4.4017   -0.5678    1.6972 H         1 <0>         0.0692
     69 H27        -5.3793   -0.7810    0.2251 H         1 <0>         0.0654
     70 H28        -1.1036   -3.3301   -1.4915 H         1 <0>         0.1114
     71 H29        -2.3522   -4.5224   -1.9249 H         1 <0>         0.0520
     72 H30        -1.2280   -3.9196   -3.1664 H         1 <0>         0.0432
     73 H31        -6.8332   -0.2183   -5.9191 H         1 <0>         0.4090
     74 H32        -6.4862   -0.4037   -7.5525 H         1 <0>         0.4268
     75 H33        -2.8990    0.6873   -5.5089 H         1 <0>         0.0585
     76 H34        -3.6732    0.3955   -3.9329 H         1 <0>         0.0678
     77 H35        -1.9304    0.7476   -4.0167 H         1 <0>         0.0717
     78 H36         1.1096   -2.0646   -5.9187 H         1 <0>         0.0522
     79 H37         0.2647   -0.6985   -6.6856 H         1 <0>         0.0578
     80 H38         1.7386   -0.4102   -5.7303 H         1 <0>         0.0688
     81 H39         2.1791   -2.3014   -4.4234 H         1 <0>         0.3790
     82 H40        -0.6765   -1.8830   -0.8444 H         1 <0>         0.0620
     83 H41        -2.1853   -1.0364   -1.2627 H         1 <0>         0.0846
     84 H42        -1.1823   -1.7540   -2.5461 H         1 <0>         0.1012
     85 H43        -0.1787    0.1212    5.9429 H         1 <0>         0.4123
@<TRIPOS>BOND
     1    1    2 1
     2    1   49 1
     3    1   50 1
     4    1   51 1
     5    2    3 1
     6    2   30 1
     7    2    4 1
     8    4    5 1
     9    4   52 1
    10    4   53 1
    11    5    6 1
    12    5    7 1
    13    5   47 1
    14    7    8 1
    15    7    9 1
    16    7   46 1
    17    9   10 1
    18    9   11 1
    19    9   45 1
    20   11   12 2
    21   11   54 1
    22   12   13 1
    23   12   44 1
    24   13   14 1
    25   13   15 1
    26   13   40 1
    27   15   16 1
    28   15   17 1
    29   15   38 1
    30   17   18 2
    31   17   55 1
    32   18   19 1
    33   18   56 1
    34   19   20 2
    35   19   57 1
    36   20   21 1
    37   20   37 1
    38   21   22 2
    39   21   23 1
    40   23   24 2
    41   24   31 1
    42   24   25 1
    43   25   26 2
    44   25   58 1
    45   26   27 1
    46   26   28 1
    47   27   85 1
    48   28   33 2
    49   28   29 1
    50   29   30 1
    51   29   31 1
    52   29   61 1
    53   30   59 1
    54   30   60 1
    55   31   32 2
    56   33   34 1
    57   34   35 1
    58   34   62 1
    59   34   63 1
    60   35   36 2
    61   35   64 1
    62   36   65 1
    63   36   66 1
    64   37   67 1
    65   37   68 1
    66   37   69 1
    67   38   39 1
    68   39   70 1
    69   39   71 1
    70   39   72 1
    71   40   41 1
    72   41   42 2
    73   41   43 am
    74   43   73 1
    75   43   74 1
    76   44   75 1
    77   44   76 1
    78   44   77 1
    79   45   78 1
    80   45   79 1
    81   45   80 1
    82   46   81 1
    83   47   48 1
    84   48   82 1
    85   48   83 1
    86   48   84 1
@<TRIPOS>MOLECULE
CHEMBL377024
   42    45     0     0     0
SMALL
USER_CHARGES

@<TRIPOS>ATOM
      1 C1         -0.0184    1.5028    0.0103 C.3       1 <0>        -0.1478
      2 C2          0.0021   -0.0041    0.0020 C.2       1 <0>         0.4608
      3 O1          1.0565   -0.5939   -0.0112 O.2       1 <0>        -0.5100
      4 O2         -1.1511   -0.6910    0.0093 O.3       1 <0>        -0.3518
      5 C3         -1.0570   -2.1168    0.0008 C.3       1 <0>         0.0702
      6 C4         -2.4627   -2.7208    0.0110 C.3       1 <0>        -0.1389
      7 C5         -2.3619   -4.2475    0.0018 C.3       1 <0>         0.1108
      8 N1         -3.7079   -4.8258    0.0115 N.pl3     1 <0>        -0.4486
      9 C6         -4.4476   -5.1481    1.1254 C.ar      1 <0>         0.3226
     10 C7         -5.6632   -5.6678    0.6505 C.ar      1 <0>        -0.1082
     11 C8         -6.6197   -6.0829    1.5913 C.ar      1 <0>         0.5178
     12 N2         -6.3306   -5.9647    2.8833 N.ar      1 <0>        -0.5914
     13 C9         -5.1735   -5.4697    3.2823 C.ar      1 <0>         0.3742
     14 N3         -4.2476   -5.0682    2.4362 N.ar      1 <0>        -0.5600
     15 N4         -7.8368   -6.6032    1.1822 N.pl3     1 <0>        -0.8131
     16 N5         -5.6116   -5.6399   -0.7044 N.2       1 <0>        -0.3949
     17 C10        -4.4629   -5.1392   -1.0858 C.2       1 <0>         0.1977
     18 S1         -3.9632   -4.9085   -2.7597 S.3       1 <0>         0.2835
     19 C11        -5.3367   -5.4890   -3.6984 C.2       1 <0>         0.0841
     20 N6         -6.4797   -5.9774   -3.2709 N.2       1 <0>        -0.4329
     21 C12        -7.4518   -6.3869   -4.1118 C.ar      1 <0>         0.0443
     22 C13        -8.7200   -6.9285   -3.8079 C.ar      1 <0>         0.1921
     23 N7         -9.5530   -7.2792   -4.7569 N.ar      1 <0>        -0.4611
     24 C14        -9.2838   -7.1586   -6.0461 C.ar      1 <0>         0.1325
     25 C15        -8.0676   -6.6387   -6.4536 C.ar      1 <0>        -0.0368
     26 C16        -7.1620   -6.2570   -5.4923 C.ar      1 <0>        -0.1271
     27 S2         -5.5327   -5.5559   -5.4742 S.3       1 <0>         0.1191
     28 Cl1        -7.6940   -6.4723   -8.1407 Cl        1 <0>        -0.0327
     29 H1          1.0042    1.8801    0.0026 H         1 <0>         0.1035
     30 H2         -0.5455    1.8639   -0.8728 H         1 <0>         0.1018
     31 H3         -0.5286    1.8543    0.9071 H         1 <0>         0.1017
     32 H4         -0.5289   -2.4407   -0.8960 H         1 <0>         0.0745
     33 H5         -0.5119   -2.4503    0.8838 H         1 <0>         0.0754
     34 H6         -2.9908   -2.3969    0.9078 H         1 <0>         0.0888
     35 H7         -3.0078   -2.3874   -0.8721 H         1 <0>         0.0854
     36 H8         -1.8338   -4.5713   -0.8950 H         1 <0>         0.1012
     37 H9         -1.8168   -4.5809    0.8848 H         1 <0>         0.1125
     38 H10        -4.9793   -5.3907    4.3418 H         1 <0>         0.2082
     39 H11        -8.0364   -6.6841    0.2364 H         1 <0>         0.4199
     40 H12        -8.4895   -6.8864    1.8415 H         1 <0>         0.4122
     41 H13        -9.0085   -7.0562   -2.7750 H         1 <0>         0.1771
     42 H14       -10.0130   -7.4661   -6.7811 H         1 <0>         0.1838
@<TRIPOS>BOND
     1    1    2 1
     2    1   29 1
     3    1   30 1
     4    1   31 1
     5    2    3 2
     6    2    4 1
     7    4    5 1
     8    5    6 1
     9    5   32 1
    10    5   33 1
    11    6    7 1
    12    6   34 1
    13    6   35 1
    14    7    8 1
    15    7   36 1
    16    7   37 1
    17    8   17 1
    18    8    9 1
    19    9   14 ar
    20    9   10 ar
    21   10   11 ar
    22   10   16 1
    23   11   12 ar
    24   11   15 1
    25   12   13 ar
    26   13   14 ar
    27   13   38 1
    28   15   39 1
    29   15   40 1
    30   16   17 2
    31   17   18 1
    32   18   19 1
    33   19   27 1
    34   19   20 2
    35   20   21 1
    36   21   26 ar
    37   21   22 ar
    38   22   23 ar
    39   22   41 1
    40   23   24 ar
    41   24   25 ar
    42   24   42 1
    43   25   26 ar
    44   25   28 1
    45   26   27 1
@<TRIPOS>MOLECULE
CHEMBL338987
   85    86     0     0     0
SMALL
NO_CHARGES

@<TRIPOS>ATOM
      1 C1         -0.6300    0.7060    2.1936 C.3       1 <0>        -0.1401
      2 C2          0.0040   -0.4134    1.3574 C.3       1 <0>        -0.0965
      3 H1         -0.7493   -1.1475    1.1062 H         1 <0>         0.0972
      4 C3          0.5936    0.1959    0.0835 C.3       1 <0>        -0.1338
      5 C4         -0.4378    0.3194   -1.0299 C.3       1 <0>         0.1067
      6 H2         -0.5557    1.3768   -1.2895 H         1 <0>         0.0891
      7 C5          0.0390   -0.4360   -2.2750 C.3       1 <0>         0.0750
      8 H3          1.0763   -0.1724   -2.4824 H         1 <0>         0.0617
      9 C6         -0.8289   -0.0525   -3.4793 C.3       1 <0>        -0.0853
     10 H4         -1.4951    0.7532   -3.1903 H         1 <0>         0.0862
     11 C7         -1.5813   -1.2508   -3.9799 C.2       1 <0>        -0.1246
     12 C8         -2.8828   -1.3669   -3.9634 C.2       1 <0>        -0.1102
     13 C9         -3.5119   -2.6439   -4.4764 C.3       1 <0>         0.1421
     14 H5         -3.0196   -2.9359   -5.4012 H         1 <0>         0.0961
     15 C10        -3.3436   -3.7573   -3.4364 C.3       1 <0>         0.1014
     16 H6         -2.8082   -4.5918   -3.8942 H         1 <0>         0.0889
     17 C11        -4.6843   -4.2284   -2.9479 C.2       1 <0>        -0.1274
     18 C12        -4.8754   -4.6476   -1.6944 C.2       1 <0>        -0.1244
     19 C13        -3.7861   -4.7067   -0.7406 C.2       1 <0>        -0.0308
     20 C14        -3.9253   -4.3991    0.5658 C.2       1 <0>        -0.1737
     21 C15        -2.7267   -4.4583    1.4092 C.2       1 <0>         0.5263
     22 O1         -1.7397   -4.9938    0.9258 O.2       1 <0>        -0.4922
     23 N1         -2.6793   -3.9970    2.6387 N.2       1 <0>        -0.5253
     24 C16        -1.6920   -3.3202    3.1745 C.2       1 <0>         0.2759
     25 C17        -1.7733   -2.9713    4.5434 C.2       1 <0>        -0.2415
     26 C18        -0.7902   -2.2490    5.1394 C.2       1 <0>         0.1703
     27 O2         -0.9117   -1.9178    6.4455 O.3       1 <0>        -0.4534
     28 C19         0.4110   -1.8256    4.4071 C.2       1 <0>         0.1858
     29 C20         0.6696   -2.2402    2.9944 C.3       1 <0>        -0.0667
     30 C21         1.1371   -1.0549    2.1648 C.3       1 <0>        -0.0994
     31 C22        -0.5125   -2.9204    2.3764 C.2       1 <0>         0.3441
     32 O3         -0.4819   -3.1492    1.1902 O.2       1 <0>        -0.3664
     33 N2          1.2763   -1.0828    5.0143 N.2       1 <0>        -0.4448
     34 C23         1.0684   -0.7125    6.4164 C.3       1 <0>         0.0614
     35 C24         2.2049    0.1624    6.8787 C.2       1 <0>        -0.1451
     36 C25         1.9561    1.3380    7.4006 C.2       1 <0>        -0.1809
     37 C26        -5.2551   -4.0064    1.1420 C.3       1 <0>        -0.1043
     38 O4         -2.5661   -3.2406   -2.3544 O.3       1 <0>        -0.3309
     39 C27        -1.3820   -3.9916   -2.0790 C.3       1 <0>         0.0123
     40 O5         -4.8980   -2.4111   -4.7201 O.3       1 <0>        -0.3455
     41 C28        -5.2389   -1.9837   -5.9504 C.2       1 <0>         0.6483
     42 O6         -4.3809   -1.8133   -6.7938 O.2       1 <0>        -0.5693
     43 N3         -6.5319   -1.7449   -6.2466 N.am      1 <0>        -0.8263
     44 C29        -3.7758   -0.2633   -3.4556 C.3       1 <0>        -0.1113
     45 C30         0.0910    0.4570   -4.5987 C.3       1 <0>        -0.1471
     46 O7         -0.0575   -1.8416   -2.0448 O.3       1 <0>        -0.5257
     47 O8         -1.7006   -0.1986   -0.6177 O.3       1 <0>        -0.3872
     48 C31        -1.8714   -1.5926   -0.8819 C.3       1 <0>        -0.0034
     49 H7          0.1441    1.4032    2.5139 H         1 <0>         0.0503
     50 H8         -1.3690    1.2349    1.5918 H         1 <0>         0.0606
     51 H9         -1.1156    0.2749    3.0691 H         1 <0>         0.0406
     52 H10         0.9932    1.1868    0.3183 H         1 <0>         0.0626
     53 H11         1.4197   -0.4346   -0.2581 H         1 <0>         0.0663
     54 H12        -1.0092   -2.0872   -4.3939 H         1 <0>         0.0968
     55 H13        -5.5298   -4.2475   -3.6310 H         1 <0>         0.1307
     56 H14        -5.8727   -4.9599   -1.3975 H         1 <0>         0.1230
     57 H15        -2.8049   -5.0416   -1.0719 H         1 <0>         0.1393
     58 H16        -2.6335   -3.2904    5.1143 H         1 <0>         0.1554
     59 H17         1.9231   -1.3804    1.4733 H         1 <0>         0.0772
     60 H18         1.5713   -0.2920    2.8222 H         1 <0>         0.0919
     61 H19         1.4997   -2.9704    3.0101 H         1 <0>         0.1348
     62 H20         0.1287   -0.1688    6.5131 H         1 <0>         0.0933
     63 H21         1.0314   -1.6137    7.0285 H         1 <0>         0.0996
     64 H22         3.2245   -0.1796    6.7798 H         1 <0>         0.1134
     65 H23         2.7706    1.9650    7.7319 H         1 <0>         0.1024
     66 H24         0.9365    1.6800    7.4995 H         1 <0>         0.0958
     67 H25        -5.7766   -4.8972    1.4923 H         1 <0>         0.0676
     68 H26        -5.1017   -3.3232    1.9774 H         1 <0>         0.0669
     69 H27        -5.8525   -3.5139    0.3748 H         1 <0>         0.0651
     70 H28        -1.0150   -3.7395   -1.0841 H         1 <0>         0.1210
     71 H29        -1.6087   -5.0568   -2.1235 H         1 <0>         0.0392
     72 H30        -0.6189   -3.7513   -2.8194 H         1 <0>         0.0418
     73 H31        -7.2168   -1.8809   -5.5733 H         1 <0>         0.4086
     74 H32        -6.7775   -1.4369   -7.1330 H         1 <0>         0.4263
     75 H33        -3.9649    0.4494   -4.2583 H         1 <0>         0.0556
     76 H34        -4.7207   -0.6877   -3.1163 H         1 <0>         0.0645
     77 H35        -3.2872    0.2462   -2.6250 H         1 <0>         0.0756
     78 H36         0.7913   -0.3296   -4.8797 H         1 <0>         0.0539
     79 H37        -0.5099    0.7348   -5.4647 H         1 <0>         0.0583
     80 H38         0.6445    1.3273   -4.2463 H         1 <0>         0.0572
     81 H39         0.3413   -2.3824   -2.7402 H         1 <0>         0.3504
     82 H40        -1.0539   -2.1515   -0.4264 H         1 <0>         0.0762
     83 H41        -2.8195   -1.9285   -0.4620 H         1 <0>         0.0434
     84 H42        -1.8709   -1.7610   -1.9588 H         1 <0>         0.1341
     85 H43        -1.7248   -2.2390    6.8588 H         1 <0>         0.4048
@<TRIPOS>BOND
     1    1    2 1
     2    1   49 1
     3    1   50 1
     4    1   51 1
     5    2    3 1
     6    2   30 1
     7    2    4 1
     8    4    5 1
     9    4   52 1
    10    4   53 1
    11    5    6 1
    12    5    7 1
    13    5   47 1
    14    7    8 1
    15    7    9 1
    16    7   46 1
    17    9   10 1
    18    9   11 1
    19    9   45 1
    20   11   12 2
    21   11   54 1
    22   12   13 1
    23   12   44 1
    24   13   14 1
    25   13   15 1
    26   13   40 1
    27   15   16 1
    28   15   17 1
    29   15   38 1
    30   17   18 2
    31   17   55 1
    32   18   19 1
    33   18   56 1
    34   19   20 2
    35   19   57 1
    36   20   21 1
    37   20   37 1
    38   21   22 2
    39   21   23 1
    40   23   24 2
    41   24   31 1
    42   24   25 1
    43   25   26 2
    44   25   58 1
    45   26   27 1
    46   26   28 1
    47   27   85 1
    48   28   33 2
    49   28   29 1
    50   29   30 1
    51   29   31 1
    52   29   61 1
    53   30   59 1
    54   30   60 1
    55   31   32 2
    56   33   34 1
    57   34   35 1
    58   34   62 1
    59   34   63 1
    60   35   36 2
    61   35   64 1
    62   36   65 1
    63   36   66 1
    64   37   67 1
    65   37   68 1
    66   37   69 1
    67   38   39 1
    68   39   70 1
    69   39   71 1
    70   39   72 1
    71   40   41 1
    72   41   42 2
    73   41   43 am
    74   43   73 1
    75   43   74 1
    76   44   75 1
    77   44   76 1
    78   44   77 1
    79   45   78 1
    80   45   79 1
    81   45   80 1
    82   46   81 1
    83   47   48 1
    84   48   82 1
    85   48   83 1
    86   48   84 1
@<TRIPOS>MOLECULE
CHEMBL338987__1
   85    86     0     0     0
SMALL
NO_CHARGES

@<TRIPOS>ATOM
      1 C1         -0.4897    2.2573   -1.2201 C.3       1 <0>        -0.1430
      2 C2         -0.2690    0.7645   -1.4977 C.3       1 <0>        -0.0954
      3 H1         -1.1632    0.2133   -1.2406 H         1 <0>         0.1010
      4 C3          0.0561    0.5815   -2.9818 C.3       1 <0>        -0.1339
      5 C4         -1.1974    0.4625   -3.8383 C.3       1 <0>         0.1068
      6 H2         -1.2179    1.2904   -4.5550 H         1 <0>         0.0898
      7 C5         -1.1777   -0.8557   -4.6195 C.3       1 <0>         0.0750
      8 H3         -0.2018   -0.9833   -5.0883 H         1 <0>         0.0611
      9 C6         -2.2594   -0.8320   -5.7057 C.3       1 <0>        -0.0850
     10 H4         -2.6994    0.1588   -5.7423 H         1 <0>         0.0864
     11 C7         -3.2869   -1.8929   -5.4387 C.2       1 <0>        -0.1257
     12 C8         -4.5420   -1.6545   -5.1641 C.2       1 <0>        -0.1090
     13 C9         -5.4669   -2.8201   -4.8891 C.3       1 <0>         0.1419
     14 H5         -5.2800   -3.6024   -5.6213 H         1 <0>         0.0961
     15 C10        -5.2050   -3.3670   -3.4814 C.3       1 <0>         0.1019
     16 H6         -4.9379   -4.4234   -3.5556 H         1 <0>         0.0887
     17 C11        -6.4290   -3.2179   -2.6224 C.2       1 <0>        -0.1285
     18 C12        -6.3504   -2.9814   -1.3105 C.2       1 <0>        -0.1233
     19 C13        -5.0734   -2.8915   -0.6316 C.2       1 <0>        -0.0326
     20 C14        -4.8224   -2.0185    0.3660 C.2       1 <0>        -0.1723
     21 C15        -3.4696   -2.0049    0.9328 C.2       1 <0>         0.5268
     22 O1         -2.7331   -2.9296    0.6209 O.2       1 <0>        -0.4950
     23 N1         -3.0373   -1.0805    1.7606 N.2       1 <0>        -0.5281
     24 C16        -1.8549   -0.5135    1.7395 C.2       1 <0>         0.2802
     25 C17        -1.5264    0.4079    2.7619 C.2       1 <0>        -0.2585
     26 C18        -0.3256    1.0416    2.7712 C.2       1 <0>         0.2450
     27 O2         -0.0543    1.9305    3.7545 O.3       1 <0>        -0.4389
     28 C19         0.6950    0.7800    1.7475 C.2       1 <0>         0.1865
     29 C20         0.5145   -0.2623    0.6913 C.3       1 <0>        -0.1226
     30 C21         0.9244    0.2770   -0.6699 C.3       1 <0>        -0.1152
     31 C22        -0.8755   -0.8187    0.6739 C.2       1 <0>         0.3481
     32 O3         -1.1873   -1.5435   -0.2415 O.2       1 <0>        -0.3677
     33 N2          1.7894    1.4662    1.7749 N.2       1 <0>        -0.4396
     34 C23         2.9403    1.0421    0.9738 C.3       1 <0>         0.0417
     35 C24         4.1133    0.7756    1.8815 C.2       1 <0>        -0.1476
     36 C25         4.7191   -0.3854    1.8453 C.2       1 <0>        -0.1779
     37 C26        -5.8835   -1.0890    0.8808 C.3       1 <0>        -0.1047
     38 O4         -4.1058   -2.6453   -2.9219 O.3       1 <0>        -0.3311
     39 C27        -3.0183   -3.4735   -2.5053 C.3       1 <0>         0.0128
     40 O5         -6.8176   -2.3735   -4.9941 O.3       1 <0>        -0.3453
     41 C28        -7.3966   -2.4575   -6.2067 C.2       1 <0>         0.6483
     42 O6         -6.7702   -2.8985   -7.1499 O.2       1 <0>        -0.5694
     43 N3         -8.6710   -2.0523   -6.3744 N.am      1 <0>        -0.8261
     44 C29        -5.0970   -0.2534   -5.1210 C.3       1 <0>        -0.1115
     45 C30        -1.5942   -1.1174   -7.0604 C.3       1 <0>        -0.1472
     46 O7         -1.4216   -1.9420   -3.7259 O.3       1 <0>        -0.5258
     47 O8         -2.3738    0.5179   -3.0346 O.3       1 <0>        -0.3866
     48 C31        -2.8161   -0.7564   -2.5630 C.3       1 <0>        -0.0037
     49 H7          0.4366    2.8018   -1.4032 H         1 <0>         0.0484
     50 H8         -1.2709    2.6377   -1.8782 H         1 <0>         0.0642
     51 H9         -0.7917    2.3930   -0.1816 H         1 <0>         0.0456
     52 H10         0.6470    1.4370   -3.3219 H         1 <0>         0.0626
     53 H11         0.6612   -0.3220   -3.1004 H         1 <0>         0.0654
     54 H12        -2.9737   -2.9409   -5.4801 H         1 <0>         0.0967
     55 H13        -7.4152   -3.3186   -3.0687 H         1 <0>         0.1307
     56 H14        -7.2724   -2.8667   -0.7473 H         1 <0>         0.1232
     57 H15        -4.2731   -3.5751   -0.9086 H         1 <0>         0.1387
     58 H16        -2.2477    0.6019    3.5428 H         1 <0>         0.1612
     59 H17         1.4469   -0.5067   -1.2310 H         1 <0>         0.0822
     60 H18         1.6233    1.1122   -0.5413 H         1 <0>         0.0838
     61 H19         1.2009   -1.0961    0.9280 H         1 <0>         0.1297
     62 H20         2.6883    0.1321    0.4291 H         1 <0>         0.0708
     63 H21         3.2001    1.8291    0.2659 H         1 <0>         0.1069
     64 H22         4.4546    1.5417    2.5619 H         1 <0>         0.1196
     65 H23         5.5598   -0.5764    2.4959 H         1 <0>         0.1069
     66 H24         4.3778   -1.1515    1.1649 H         1 <0>         0.0967
     67 H25        -6.4245   -1.5707    1.6952 H         1 <0>         0.0679
     68 H26        -5.4185   -0.1730    1.2452 H         1 <0>         0.0677
     69 H27        -6.5777   -0.8486    0.0756 H         1 <0>         0.0648
     70 H28        -2.3794   -2.9168   -1.8198 H         1 <0>         0.1202
     71 H29        -3.4077   -4.3583   -2.0017 H         1 <0>         0.0393
     72 H30        -2.4384   -3.7773   -3.3769 H         1 <0>         0.0415
     73 H31        -9.1711   -1.7002   -5.6215 H         1 <0>         0.4088
     74 H32        -9.0882   -2.1128   -7.2480 H         1 <0>         0.4263
     75 H33        -5.3778    0.0574   -6.1273 H         1 <0>         0.0558
     76 H34        -5.9750   -0.2300   -4.4753 H         1 <0>         0.0649
     77 H35        -4.3397    0.4255   -4.7290 H         1 <0>         0.0755
     78 H36        -1.1168   -2.0969   -7.0315 H         1 <0>         0.0538
     79 H37        -2.3496   -1.1045   -7.8460 H         1 <0>         0.0588
     80 H38        -0.8441   -0.3535   -7.2649 H         1 <0>         0.0570
     81 H39        -1.3035   -2.8144   -4.1259 H         1 <0>         0.3506
     82 H40        -2.0046   -1.2465   -2.0252 H         1 <0>         0.0755
     83 H41        -3.6659   -0.6212   -1.8939 H         1 <0>         0.0447
     84 H42        -3.1154   -1.3735   -3.4102 H         1 <0>         0.1346
     85 H43        -0.7717    2.0415    4.3933 H         1 <0>         0.4118
@<TRIPOS>BOND
     1    1    2 1
     2    1   49 1
     3    1   50 1
     4    1   51 1
     5    2    3 1
     6    2   30 1
     7    2    4 1
     8    4    5 1
     9    4   52 1
    10    4   53 1
    11    5    6 1
    12    5    7 1
    13    5   47 1
    14    7    8 1
    15    7    9 1
    16    7   46 1
    17    9   10 1
    18    9   11 1
    19    9   45 1
    20   11   12 2
    21   11   54 1
    22   12   13 1
    23   12   44 1
    24   13   14 1
    25   13   15 1
    26   13   40 1
    27   15   16 1
    28   15   17 1
    29   15   38 1
    30   17   18 2
    31   17   55 1
    32   18   19 1
    33   18   56 1
    34   19   20 2
    35   19   57 1
    36   20   21 1
    37   20   37 1
    38   21   22 2
    39   21   23 1
    40   23   24 2
    41   24   31 1
    42   24   25 1
    43   25   26 2
    44   25   58 1
    45   26   27 1
    46   26   28 1
    47   27   85 1
    48   28   33 2
    49   28   29 1
    50   29   30 1
    51   29   31 1
    52   29   61 1
    53   30   59 1
    54   30   60 1
    55   31   32 2
    56   33   34 1
    57   34   35 1
    58   34   62 1
    59   34   63 1
    60   35   36 2
    61   35   64 1
    62   36   65 1
    63   36   66 1
    64   37   67 1
    65   37   68 1
    66   37   69 1
    67   38   39 1
    68   39   70 1
    69   39   71 1
    70   39   72 1
    71   40   41 1
    72   41   42 2
    73   41   43 am
    74   43   73 1
    75   43   74 1
    76   44   75 1
    77   44   76 1
    78   44   77 1
    79   45   78 1
    80   45   79 1
    81   45   80 1
    82   46   81 1
    83   47   48 1
    84   48   82 1
    85   48   83 1
    86   48   84 1
@<TRIPOS>MOLECULE
CHEMBL193282
   49    51     0     0     0
SMALL
USER_CHARGES

@<TRIPOS>ATOM
      1 C1         -2.2447   -2.0717   -3.5131 C.3       1 <0>         0.0189
      2 O1         -1.4819   -2.3337   -2.3335 O.3       1 <0>        -0.2960
      3 C2         -1.9510   -1.8151   -1.1669 C.ar      1 <0>         0.1207
      4 C3         -3.1233   -1.0755   -1.1592 C.ar      1 <0>        -0.1269
      5 C4         -3.6027   -0.5458    0.0314 C.ar      1 <0>        -0.0939
      6 C5         -2.9075   -0.7569    1.2159 C.ar      1 <0>        -0.0211
      7 C6         -1.7352   -1.4969    1.2091 C.ar      1 <0>         0.1180
      8 C7         -1.2582   -2.0316    0.0180 C.ar      1 <0>         0.0950
      9 O2         -0.1095   -2.7629    0.0115 O.3       1 <0>        -0.3155
     10 C8          1.1122   -2.0501   -0.1920 C.3       1 <0>         0.0375
     11 O3         -1.0546   -1.7037    2.3685 O.3       1 <0>        -0.3163
     12 C9         -1.4000   -2.8656    3.1252 C.3       1 <0>         0.0349
     13 Cl1        -3.5067   -0.0935    2.7040 Cl        1 <0>        -0.0250
     14 S1         -5.0926    0.3947    0.0402 S.3       1 <0>         0.1376
     15 C10        -4.5431    2.0623    0.1875 C.2       1 <0>         0.2365
     16 N1         -3.2913    2.4485    0.1663 N.2       1 <0>        -0.4387
     17 C11        -3.2337    3.7974    0.3045 C.ar      1 <0>        -0.1046
     18 C12        -2.1916    4.7379    0.3520 C.ar      1 <0>         0.5421
     19 N2         -2.5016    6.0216    0.5018 N.ar      1 <0>        -0.6038
     20 C13        -3.7605    6.4138    0.6048 C.ar      1 <0>         0.5676
     21 N3         -4.7697    5.5655    0.5653 N.ar      1 <0>        -0.5722
     22 C14        -4.5534    4.2624    0.4181 C.ar      1 <0>         0.3409
     23 N4         -5.3600    3.1510    0.3355 N.pl3     1 <0>        -0.4453
     24 C15        -6.8235    3.1350    0.3984 C.3       1 <0>         0.1068
     25 C16        -7.2698    2.9825    1.8540 C.3       1 <0>        -0.1336
     26 C17        -8.7983    2.9657    1.9197 C.3       1 <0>        -0.0051
     27 C18        -9.2276    2.8191    3.3200 C.1       1 <0>        -0.1940
     28 C19        -9.5701    2.7021    4.4368 C.1       1 <0>        -0.1972
     29 F1         -4.0221    7.7306    0.7561 F         1 <0>        -0.0697
     30 N5         -0.8699    4.3363    0.2455 N.pl3     1 <0>        -0.8065
     31 H1         -1.7612   -2.5409   -4.3701 H         1 <0>         0.1087
     32 H2         -3.2487   -2.4790   -3.3945 H         1 <0>         0.0620
     33 H3         -2.3058   -0.9955   -3.6747 H         1 <0>         0.0606
     34 H4         -3.6638   -0.9108   -2.0796 H         1 <0>         0.1569
     35 H5          1.9481   -2.7494   -0.1747 H         1 <0>         0.0996
     36 H6          1.0814   -1.5445   -1.1572 H         1 <0>         0.0497
     37 H7          1.2390   -1.3126    0.6005 H         1 <0>         0.0528
     38 H8         -0.7841   -2.9106    4.0234 H         1 <0>         0.1020
     39 H9         -2.4515   -2.8158    3.4078 H         1 <0>         0.0507
     40 H10        -1.2278   -3.7567    2.5216 H         1 <0>         0.0560
     41 H11        -7.2148    4.0686   -0.0057 H         1 <0>         0.1087
     42 H12        -7.2032    2.2980   -0.1875 H         1 <0>         0.1030
     43 H13        -6.8785    2.0489    2.2581 H         1 <0>         0.0796
     44 H14        -6.8901    3.8195    2.4400 H         1 <0>         0.0781
     45 H15        -9.1896    3.8994    1.5155 H         1 <0>         0.0924
     46 H16        -9.1780    2.1287    1.3337 H         1 <0>         0.0926
     47 H17        -9.8763    2.5975    5.4357 H         1 <0>         0.2177
     48 H18        -0.6558    3.3965    0.1368 H         1 <0>         0.4230
     49 H19        -0.1587    4.9950    0.2797 H         1 <0>         0.4147
@<TRIPOS>BOND
     1    1    2 1
     2    1   31 1
     3    1   32 1
     4    1   33 1
     5    2    3 1
     6    3    8 ar
     7    3    4 ar
     8    4    5 ar
     9    4   34 1
    10    5    6 ar
    11    5   14 1
    12    6    7 ar
    13    6   13 1
    14    7    8 ar
    15    7   11 1
    16    8    9 1
    17    9   10 1
    18   10   35 1
    19   10   36 1
    20   10   37 1
    21   11   12 1
    22   12   38 1
    23   12   39 1
    24   12   40 1
    25   14   15 1
    26   15   23 1
    27   15   16 2
    28   16   17 1
    29   17   22 ar
    30   17   18 ar
    31   18   19 ar
    32   18   30 1
    33   19   20 ar
    34   20   21 ar
    35   20   29 1
    36   21   22 ar
    37   22   23 1
    38   23   24 1
    39   24   25 1
    40   24   41 1
    41   24   42 1
    42   25   26 1
    43   25   43 1
    44   25   44 1
    45   26   27 1
    46   26   45 1
    47   26   46 1
    48   27   28 3
    49   28   47 1
    50   30   48 1
    51   30   49 1
@<TRIPOS>MOLECULE
CHEMBL467399
   37    39     0     0     0
SMALL
USER_CHARGES

@<TRIPOS>ATOM
      1 C1         -0.0184    1.5028    0.0103 C.3       1 <0>        -0.1092
      2 C2          0.0021   -0.0041    0.0020 C.ar      1 <0>        -0.1385
      3 C3          0.0060   -0.6969   -1.1913 C.ar      1 <0>         0.1042
      4 N1          0.0243   -2.0162   -1.2071 N.ar      1 <0>        -0.4624
      5 C4          0.0395   -2.7261   -0.0946 C.ar      1 <0>         0.0905
      6 C5          0.0369   -2.1077    1.1386 C.ar      1 <0>        -0.1181
      7 C6          0.0231   -0.7162    1.1984 C.ar      1 <0>         0.1300
      8 O1          0.0252   -0.0709    2.3926 O.3       1 <0>        -0.3270
      9 C7         -1.2469    0.2198    2.9751 C.3       1 <0>         0.0335
     10 C8          0.0543   -2.9265    2.4036 C.3       1 <0>        -0.1141
     11 C9          0.0596   -4.2309   -0.1724 C.3       1 <0>         0.1661
     12 N2          1.4472   -4.6998   -0.2045 N.pl3     1 <0>        -0.4712
     13 C10         2.1763   -4.9866   -1.3210 C.2       1 <0>         0.2772
     14 N3          3.3710   -5.3769   -0.9855 N.2       1 <0>        -0.4513
     15 C11         3.4869   -5.3663    0.3660 C.ar      1 <0>        -0.0917
     16 C12         2.2532   -4.9251    0.8828 C.ar      1 <0>         0.3389
     17 N4          2.1045   -4.8192    2.1969 N.ar      1 <0>        -0.5647
     18 C13         3.1034   -5.1212    3.0108 C.ar      1 <0>         0.6038
     19 N5          4.2809   -5.5366    2.5613 N.ar      1 <0>        -0.5583
     20 C14         4.5097   -5.6779    1.2659 C.ar      1 <0>         0.3329
     21 Cl1         6.0566   -6.2203    0.6943 Cl        1 <0>         0.0109
     22 N6          2.9135   -4.9992    4.3777 N.pl3     1 <0>        -0.8118
     23 H1          1.0042    1.8801    0.0026 H         1 <0>         0.0792
     24 H2         -0.5455    1.8639   -0.8728 H         1 <0>         0.0743
     25 H3         -0.5286    1.8543    0.9071 H         1 <0>         0.0702
     26 H4         -0.0064   -0.1526   -2.1241 H         1 <0>         0.1646
     27 H5         -1.1025    0.7356    3.9244 H         1 <0>         0.1010
     28 H6         -1.8191    0.8557    2.2995 H         1 <0>         0.0503
     29 H7         -1.7894   -0.7101    3.1457 H         1 <0>         0.0504
     30 H8          1.0861   -3.1096    2.7037 H         1 <0>         0.1023
     31 H9         -0.4633   -2.3840    3.1947 H         1 <0>         0.0636
     32 H10        -0.4472   -3.8781    2.2275 H         1 <0>         0.0710
     33 H11        -0.4442   -4.6466    0.7002 H         1 <0>         0.1155
     34 H12        -0.4544   -4.5549   -1.0773 H         1 <0>         0.1210
     35 H13         1.8145   -4.9025   -2.3351 H         1 <0>         0.2289
     36 H14         2.0593   -4.6967    4.7237 H         1 <0>         0.4176
     37 H15         3.6349   -5.2163    4.9888 H         1 <0>         0.4202
@<TRIPOS>BOND
     1    1    2 1
     2    1   23 1
     3    1   24 1
     4    1   25 1
     5    2    7 ar
     6    2    3 ar
     7    3    4 ar
     8    3   26 1
     9    4    5 ar
    10    5    6 ar
    11    5   11 1
    12    6    7 ar
    13    6   10 1
    14    7    8 1
    15    8    9 1
    16    9   27 1
    17    9   28 1
    18    9   29 1
    19   10   30 1
    20   10   31 1
    21   10   32 1
    22   11   12 1
    23   11   33 1
    24   11   34 1
    25   12   16 1
    26   12   13 1
    27   13   14 2
    28   13   35 1
    29   14   15 1
    30   15   20 ar
    31   15   16 ar
    32   16   17 ar
    33   17   18 ar
    34   18   19 ar
    35   18   22 1
    36   19   20 ar
    37   20   21 1
    38   22   36 1
    39   22   37 1
@<TRIPOS>MOLECULE
CHEMBL254875
   47    50     0     0     0
SMALL
USER_CHARGES

@<TRIPOS>ATOM
      1 C1          0.0053    1.3943    0.3540 C.ar      1 <0>        -0.1281
      2 C2          1.1724    2.1071    0.1890 C.ar      1 <0>        -0.0734
      3 C3          2.3848    1.4387    0.0691 C.ar      1 <0>         0.0325
      4 C4          2.4117    0.0368    0.1171 C.ar      1 <0>        -0.1344
      5 C5          1.2263   -0.6782    0.2839 C.ar      1 <0>        -0.1298
      6 C6          0.0277    0.0023    0.4022 C.ar      1 <0>         0.1976
      7 N1         -1.1651   -0.7095    0.5707 N.pl3     1 <0>        -0.7467
      8 C7         -2.4355    0.0093    0.6961 C.3       1 <0>         0.1273
      9 C8         -3.5756   -0.9963    0.8691 C.3       1 <0>         0.0447
     10 N2         -4.8494   -0.2756    0.9949 N.3       1 <0>        -0.5334
     11 C9         -4.8910    0.5076    2.2384 C.3       1 <0>         0.0119
     12 C10        -6.2071    1.2874    2.3002 C.3       1 <0>         0.0625
     13 O1         -7.3023    0.3733    2.1991 O.3       1 <0>        -0.3845
     14 C11        -7.2934   -0.4055    0.9996 C.3       1 <0>         0.0627
     15 C12        -5.9884   -1.2025    0.9246 C.3       1 <0>         0.0183
     16 C13         3.8223   -0.3581   -0.0364 C.2       1 <0>         0.1592
     17 N3          4.5194    0.7407   -0.1596 N.2       1 <0>        -0.2497
     18 O2          3.6570    1.8586   -0.0977 O.3       1 <0>        -0.0845
     19 C14         4.3515   -1.7407   -0.0485 C.ar      1 <0>        -0.0683
     20 C15         3.7343   -2.7194   -0.8277 C.ar      1 <0>        -0.0274
     21 C16         4.2296   -4.0059   -0.8373 C.ar      1 <0>        -0.1336
     22 C17         5.3437   -4.3317   -0.0715 C.ar      1 <0>         0.1735
     23 C18         5.9628   -3.3649    0.7061 C.ar      1 <0>        -0.1673
     24 C19         5.4762   -2.0686    0.7173 C.ar      1 <0>         0.1782
     25 O3          6.0850   -1.1193    1.4740 O.3       1 <0>        -0.4802
     26 O4          5.8267   -5.6013   -0.0849 O.3       1 <0>        -0.4817
     27 Br1         3.3915   -5.3312   -1.8942 Br        1 <0>        -0.0209
     28 H1         -0.9338    1.9188    0.4512 H         1 <0>         0.1402
     29 H2          1.1452    3.1862    0.1525 H         1 <0>         0.1422
     30 H3          1.2439   -1.7575    0.3206 H         1 <0>         0.1308
     31 H4         -1.1509   -1.6788    0.6044 H         1 <0>         0.4014
     32 H5         -2.3965    0.6672    1.5643 H         1 <0>         0.0614
     33 H6         -2.6075    0.6026   -0.2019 H         1 <0>         0.0722
     34 H7         -3.6145   -1.6542    0.0009 H         1 <0>         0.0842
     35 H8         -3.4036   -1.5897    1.7671 H         1 <0>         0.0433
     36 H9         -4.8257   -0.1644    3.0941 H         1 <0>         0.0458
     37 H10        -4.0535    1.2049    2.2576 H         1 <0>         0.0897
     38 H11        -6.2676    1.8248    3.2466 H         1 <0>         0.1001
     39 H12        -6.2484    1.9976    1.4743 H         1 <0>         0.0618
     40 H13        -8.1396   -1.0925    1.0054 H         1 <0>         0.1006
     41 H14        -7.3663    0.2555    0.1359 H         1 <0>         0.0619
     42 H15        -5.9518   -1.7534   -0.0152 H         1 <0>         0.0888
     43 H16        -5.9405   -1.9018    1.7593 H         1 <0>         0.0455
     44 H17         2.8685   -2.4694   -1.4230 H         1 <0>         0.1485
     45 H18         6.8276   -3.6220    1.2998 H         1 <0>         0.1542
     46 H19         5.7375   -1.0512    2.3739 H         1 <0>         0.4000
     47 H20         6.4934   -5.7613   -0.7669 H         1 <0>         0.4026
@<TRIPOS>BOND
     1    1    6 ar
     2    1    2 ar
     3    1   28 1
     4    2    3 ar
     5    2   29 1
     6    3   18 1
     7    3    4 ar
     8    4    5 ar
     9    4   16 1
    10    5    6 ar
    11    5   30 1
    12    6    7 1
    13    7    8 1
    14    7   31 1
    15    8    9 1
    16    8   32 1
    17    8   33 1
    18    9   10 1
    19    9   34 1
    20    9   35 1
    21   10   15 1
    22   10   11 1
    23   11   12 1
    24   11   36 1
    25   11   37 1
    26   12   13 1
    27   12   38 1
    28   12   39 1
    29   13   14 1
    30   14   15 1
    31   14   40 1
    32   14   41 1
    33   15   42 1
    34   15   43 1
    35   16   17 2
    36   16   19 1
    37   17   18 1
    38   19   24 ar
    39   19   20 ar
    40   20   21 ar
    41   20   44 1
    42   21   22 ar
    43   21   27 1
    44   22   23 ar
    45   22   26 1
    46   23   24 ar
    47   23   45 1
    48   24   25 1
    49   25   46 1
    50   26   47 1
@<TRIPOS>MOLECULE
CHEMBL254875__1
   48    51     0     0     0
SMALL
USER_CHARGES

@<TRIPOS>ATOM
      1 C1          0.0053    1.3943    0.3540 C.ar      1 <0>        -0.1285
      2 C2          1.1724    2.1071    0.1890 C.ar      1 <0>        -0.0735
      3 C3          2.3848    1.4387    0.0691 C.ar      1 <0>         0.0484
      4 C4          2.4117    0.0368    0.1171 C.ar      1 <0>        -0.1349
      5 C5          1.2263   -0.6782    0.2839 C.ar      1 <0>        -0.1098
      6 C6          0.0277    0.0023    0.4022 C.ar      1 <0>         0.1771
      7 N1         -1.1651   -0.7095    0.5707 N.pl3     1 <0>        -0.7480
      8 C7         -2.4355    0.0093    0.6961 C.3       1 <0>         0.1050
      9 C8         -3.5756   -0.9963    0.8691 C.3       1 <0>        -0.0209
     10 N2         -4.8494   -0.2756    0.9949 N.4       1 <0>        -0.3816
     11 C9         -4.8427    0.5192    2.2308 C.3       1 <0>        -0.0507
     12 C10        -6.1708    1.2693    2.3594 C.3       1 <0>         0.0362
     13 O1         -7.2474    0.3277    2.3462 O.3       1 <0>        -0.3554
     14 C11        -7.2822   -0.4876    1.1716 C.3       1 <0>         0.0357
     15 C12        -5.9562   -1.2410    1.0407 C.3       1 <0>        -0.0427
     16 C13         3.8223   -0.3581   -0.0364 C.2       1 <0>         0.1627
     17 N3          4.5194    0.7407   -0.1596 N.2       1 <0>        -0.2385
     18 O2          3.6570    1.8586   -0.0977 O.3       1 <0>        -0.0808
     19 C14         4.3515   -1.7407   -0.0485 C.ar      1 <0>        -0.0767
     20 C15         3.7343   -2.7194   -0.8277 C.ar      1 <0>        -0.0280
     21 C16         4.2296   -4.0059   -0.8373 C.ar      1 <0>        -0.1356
     22 C17         5.3437   -4.3317   -0.0715 C.ar      1 <0>         0.1792
     23 C18         5.9628   -3.3649    0.7061 C.ar      1 <0>        -0.1662
     24 C19         5.4762   -2.0686    0.7173 C.ar      1 <0>         0.1817
     25 O3          6.0850   -1.1193    1.4740 O.3       1 <0>        -0.4793
     26 O4          5.8267   -5.6013   -0.0849 O.3       1 <0>        -0.4813
     27 Br1         3.3915   -5.3312   -1.8942 Br        1 <0>        -0.0188
     28 H1         -0.9338    1.9188    0.4512 H         1 <0>         0.1351
     29 H2          1.1452    3.1862    0.1525 H         1 <0>         0.1464
     30 H3          1.2439   -1.7575    0.3206 H         1 <0>         0.1353
     31 H4         -1.1509   -1.6788    0.6044 H         1 <0>         0.4083
     32 H5         -2.3965    0.6672    1.5643 H         1 <0>         0.0802
     33 H6         -2.6075    0.6026   -0.2019 H         1 <0>         0.0812
     34 H7         -3.6145   -1.6542    0.0009 H         1 <0>         0.1407
     35 H8         -3.4036   -1.5897    1.7671 H         1 <0>         0.1386
     36 H9         -4.7141   -0.1421    3.0877 H         1 <0>         0.1417
     37 H10        -4.0220    1.2358    2.1978 H         1 <0>         0.1442
     38 H11        -6.1853    1.8257    3.2966 H         1 <0>         0.1436
     39 H12        -6.2811    1.9601    1.5235 H         1 <0>         0.0829
     40 H13        -8.1011   -1.2028    1.2491 H         1 <0>         0.1438
     41 H14        -7.4306    0.1430    0.2950 H         1 <0>         0.0827
     42 H15        -5.9621   -1.8311    0.1243 H         1 <0>         0.1446
     43 H16        -5.8272   -1.9017    1.8980 H         1 <0>         0.1408
     44 H17         2.8685   -2.4694   -1.4230 H         1 <0>         0.1464
     45 H18         6.8276   -3.6220    1.2998 H         1 <0>         0.1567
     46 H19         5.7375   -1.0512    2.3739 H         1 <0>         0.4007
     47 H20         6.4934   -5.7613   -0.7669 H         1 <0>         0.4060
     48 H21        -4.9694    0.3365    0.2018 H         1 <0>         0.4254
@<TRIPOS>BOND
     1    1    6 ar
     2    1    2 ar
     3    1   28 1
     4    2    3 ar
     5    2   29 1
     6    3   18 1
     7    3    4 ar
     8    4    5 ar
     9    4   16 1
    10    5    6 ar
    11    5   30 1
    12    6    7 1
    13    7    8 1
    14    7   31 1
    15    8    9 1
    16    8   32 1
    17    8   33 1
    18    9   10 1
    19    9   34 1
    20    9   35 1
    21   10   15 1
    22   10   11 1
    23   10   48 1
    24   11   12 1
    25   11   36 1
    26   11   37 1
    27   12   13 1
    28   12   38 1
    29   12   39 1
    30   13   14 1
    31   14   15 1
    32   14   40 1
    33   14   41 1
    34   15   42 1
    35   15   43 1
    36   16   17 2
    37   16   19 1
    38   17   18 1
    39   19   24 ar
    40   19   20 ar
    41   20   21 ar
    42   20   44 1
    43   21   22 ar
    44   21   27 1
    45   22   23 ar
    46   22   26 1
    47   23   24 ar
    48   23   45 1
    49   24   25 1
    50   25   46 1
    51   26   47 1
@<TRIPOS>MOLECULE
CHEMBL402712
   44    47     0     0     0
SMALL
USER_CHARGES

@<TRIPOS>ATOM
      1 C1         -0.1972    1.6935    0.3985 C.3       1 <0>        -0.0472
      2 N1         -0.1407    0.2278    0.3185 N.4       1 <0>        -0.3839
      3 C2         -1.5059   -0.3119    0.2874 C.3       1 <0>        -0.0238
      4 C3         -1.4495   -1.8302    0.0887 C.3       1 <0>         0.0997
      5 N2         -0.5927   -2.4061    1.1368 N.pl3     1 <0>        -0.6439
      6 C4          0.7377   -1.8145    1.3473 C.3       1 <0>         0.0985
      7 C5          0.5780   -0.2970    1.4865 C.3       1 <0>        -0.0233
      8 C6         -1.0305   -3.4862    1.9111 C.ar      1 <0>         0.1747
      9 C7         -2.3338   -3.9588    1.7707 C.ar      1 <0>        -0.1227
     10 C8         -2.7775   -5.0210    2.5266 C.ar      1 <0>        -0.0701
     11 C9         -1.9237   -5.6308    3.4384 C.ar      1 <0>         0.0528
     12 C10        -0.6110   -5.1585    3.5825 C.ar      1 <0>        -0.1360
     13 C11        -0.1669   -4.0855    2.8097 C.ar      1 <0>        -0.1156
     14 C12         0.0249   -6.0018    4.6088 C.2       1 <0>         0.1612
     15 N3         -0.8681   -6.8722    5.0006 N.2       1 <0>        -0.2363
     16 O1         -2.0745   -6.6635    4.2948 O.3       1 <0>        -0.0784
     17 C13         1.4153   -5.8856    5.1041 C.ar      1 <0>        -0.0698
     18 C14         1.9304   -4.6380    5.4568 C.ar      1 <0>        -0.0505
     19 C15         3.2256   -4.5329    5.9177 C.ar      1 <0>        -0.0780
     20 C16         4.0211   -5.6679    6.0321 C.ar      1 <0>         0.1625
     21 C17         3.5165   -6.9115    5.6835 C.ar      1 <0>        -0.1597
     22 C18         2.2151   -7.0276    5.2252 C.ar      1 <0>         0.1729
     23 O2          1.7179   -8.2458    4.8888 O.3       1 <0>        -0.4789
     24 O3          5.2966   -5.5578    6.4864 O.3       1 <0>        -0.4821
     25 Cl1         3.8652   -2.9796    6.3557 Cl        1 <0>        -0.0414
     26 H1          0.8157    2.0959    0.4136 H         1 <0>         0.1256
     27 H2         -0.7305    2.0844   -0.4680 H         1 <0>         0.1257
     28 H3         -0.7187    1.9878    1.3093 H         1 <0>         0.1220
     29 H4         -2.0072   -0.0869    1.2288 H         1 <0>         0.1332
     30 H5         -2.0575    0.1421   -0.5358 H         1 <0>         0.1423
     31 H6         -2.4535   -2.2473    0.1662 H         1 <0>         0.1272
     32 H7         -1.0306   -2.0559   -0.8919 H         1 <0>         0.0906
     33 H8          1.1797   -2.2213    2.2568 H         1 <0>         0.1251
     34 H9          1.3775   -2.0387    0.4937 H         1 <0>         0.0906
     35 H10         1.5620    0.1680    1.5469 H         1 <0>         0.1424
     36 H11         0.0136   -0.0725    2.3916 H         1 <0>         0.1334
     37 H12        -3.0013   -3.4883    1.0639 H         1 <0>         0.1425
     38 H13        -3.7894   -5.3801    2.4111 H         1 <0>         0.1494
     39 H14         0.8446   -3.7222    2.9155 H         1 <0>         0.1347
     40 H15         1.3150   -3.7548    5.3687 H         1 <0>         0.1453
     41 H16         4.1375   -7.7906    5.7738 H         1 <0>         0.1577
     42 H17         1.8595   -8.4864    3.9629 H         1 <0>         0.4007
     43 H18         5.3811   -5.6421    7.4460 H         1 <0>         0.4056
     44 H19         0.3448   -0.0434   -0.5234 H         1 <0>         0.4253
@<TRIPOS>BOND
     1    1    2 1
     2    1   26 1
     3    1   27 1
     4    1   28 1
     5    2    7 1
     6    2    3 1
     7    2   44 1
     8    3    4 1
     9    3   29 1
    10    3   30 1
    11    4    5 1
    12    4   31 1
    13    4   32 1
    14    5    6 1
    15    5    8 1
    16    6    7 1
    17    6   33 1
    18    6   34 1
    19    7   35 1
    20    7   36 1
    21    8   13 ar
    22    8    9 ar
    23    9   10 ar
    24    9   37 1
    25   10   11 ar
    26   10   38 1
    27   11   16 1
    28   11   12 ar
    29   12   13 ar
    30   12   14 1
    31   13   39 1
    32   14   15 2
    33   14   17 1
    34   15   16 1
    35   17   22 ar
    36   17   18 ar
    37   18   19 ar
    38   18   40 1
    39   19   20 ar
    40   19   25 1
    41   20   21 ar
    42   20   24 1
    43   21   22 ar
    44   21   41 1
    45   22   23 1
    46   23   42 1
    47   24   43 1
@<TRIPOS>MOLECULE
CHEMBL402712__1
   43    46     0     0     0
SMALL
USER_CHARGES

@<TRIPOS>ATOM
      1 C1          1.4428   -0.6820   -2.2411 C.3       1 <0>         0.0241
      2 N1          0.6858   -0.9870   -1.0198 N.3       1 <0>        -0.5422
      3 C2          1.5177   -1.7157   -0.0529 C.3       1 <0>         0.0381
      4 C3          0.7554   -1.8549    1.2691 C.3       1 <0>         0.1250
      5 N2         -0.5540   -2.4645    0.9915 N.pl3     1 <0>        -0.6292
      6 C4         -1.3887   -1.8701   -0.0636 C.3       1 <0>         0.1260
      7 C5         -0.5419   -1.7303   -1.3332 C.3       1 <0>         0.0380
      8 C6         -0.9939   -3.5806    1.7117 C.ar      1 <0>         0.2016
      9 C7         -2.2816   -4.0738    1.5112 C.ar      1 <0>        -0.1318
     10 C8         -2.7270   -5.1715    2.2134 C.ar      1 <0>        -0.0711
     11 C9         -1.8907   -5.7969    3.1308 C.ar      1 <0>         0.0299
     12 C10        -0.5936   -5.3040    3.3353 C.ar      1 <0>        -0.1319
     13 C11        -0.1475   -4.1949    2.6166 C.ar      1 <0>        -0.1372
     14 C12         0.0262   -6.1713    4.3514 C.2       1 <0>         0.1585
     15 N3         -0.8604   -7.0730    4.6819 N.2       1 <0>        -0.2496
     16 O1         -2.0474   -6.8630    3.9442 O.3       1 <0>        -0.0844
     17 C13         1.3970   -6.0454    4.8965 C.ar      1 <0>        -0.0611
     18 C14         1.8739   -4.8014    5.3104 C.ar      1 <0>        -0.0485
     19 C15         3.1509   -4.6873    5.8175 C.ar      1 <0>        -0.0751
     20 C16         3.9661   -5.8096    5.9179 C.ar      1 <0>         0.1557
     21 C17         3.4995   -7.0495    5.5087 C.ar      1 <0>        -0.1614
     22 C18         2.2164   -7.1749    5.0035 C.ar      1 <0>         0.1674
     23 O2          1.7562   -8.3898    4.6075 O.3       1 <0>        -0.4800
     24 O3          5.2235   -5.6906    6.4181 O.3       1 <0>        -0.4824
     25 Cl1         3.7430   -3.1384    6.3316 Cl        1 <0>        -0.0411
     26 H1          0.8285   -0.0769   -2.9078 H         1 <0>         0.0714
     27 H2          2.3468   -0.1316   -1.9804 H         1 <0>         0.0709
     28 H3          1.7150   -1.6114   -2.7415 H         1 <0>         0.0262
     29 H4          1.7488   -2.7060   -0.4455 H         1 <0>         0.0388
     30 H5          2.4435   -1.1663    0.1172 H         1 <0>         0.0874
     31 H6          1.3185   -2.4919    1.9512 H         1 <0>         0.0856
     32 H7          0.6138   -0.8707    1.7155 H         1 <0>         0.0740
     33 H8         -2.2430   -2.5170   -0.2627 H         1 <0>         0.0869
     34 H9         -1.7363   -0.8873    0.2546 H         1 <0>         0.0736
     35 H10        -1.1098   -1.1914   -2.0916 H         1 <0>         0.0876
     36 H11        -0.2821   -2.7203   -1.7079 H         1 <0>         0.0391
     37 H12        -2.9355   -3.5913    0.7998 H         1 <0>         0.1421
     38 H13        -3.7268   -5.5464    2.0515 H         1 <0>         0.1422
     39 H14         0.8522   -3.8155    2.7689 H         1 <0>         0.1331
     40 H15         1.2432   -3.9281    5.2333 H         1 <0>         0.1491
     41 H16         4.1356   -7.9187    5.5882 H         1 <0>         0.1544
     42 H17         1.9330   -8.5938    3.6790 H         1 <0>         0.3987
     43 H18         5.2784   -5.8080    7.3763 H         1 <0>         0.4015
@<TRIPOS>BOND
     1    1    2 1
     2    1   26 1
     3    1   27 1
     4    1   28 1
     5    2    7 1
     6    2    3 1
     7    3    4 1
     8    3   29 1
     9    3   30 1
    10    4    5 1
    11    4   31 1
    12    4   32 1
    13    5    6 1
    14    5    8 1
    15    6    7 1
    16    6   33 1
    17    6   34 1
    18    7   35 1
    19    7   36 1
    20    8   13 ar
    21    8    9 ar
    22    9   10 ar
    23    9   37 1
    24   10   11 ar
    25   10   38 1
    26   11   16 1
    27   11   12 ar
    28   12   13 ar
    29   12   14 1
    30   13   39 1
    31   14   15 2
    32   14   17 1
    33   15   16 1
    34   17   22 ar
    35   17   18 ar
    36   18   19 ar
    37   18   40 1
    38   19   20 ar
    39   19   25 1
    40   20   21 ar
    41   20   24 1
    42   21   22 ar
    43   21   41 1
    44   22   23 1
    45   23   42 1
    46   24   43 1
@<TRIPOS>MOLECULE
CHEMBL212850
   50    53     0     0     0
SMALL
USER_CHARGES

@<TRIPOS>ATOM
      1 C1         -0.0187    1.5258    0.0104 C.3       1 <0>        -0.1604
      2 C2          0.0021   -0.0041    0.0020 C.3       1 <0>         0.1024
      3 O1         -1.3386   -0.4987    0.0122 O.3       1 <0>        -0.7476
      4 P1         -1.6939   -2.0690    0.0071 P.3       1 <0>         2.3967
      5 O2         -1.0113   -2.7329    1.1401 O.2       1 <0>        -1.0141
      6 C3         -3.4965   -2.2846    0.1730 C.3       1 <0>        -0.7470
      7 C4         -3.9476   -1.7719    1.5421 C.3       1 <0>         0.1256
      8 N1         -5.3962   -1.9452    1.6754 N.pl3     1 <0>        -0.4471
      9 C5         -6.3619   -1.0350    1.3138 C.ar      1 <0>         0.3183
     10 C6         -7.5959   -1.6305    1.6235 C.ar      1 <0>        -0.1076
     11 C7         -8.7683   -0.9064    1.3521 C.ar      1 <0>         0.5183
     12 N2         -8.6554    0.3049    0.8166 N.ar      1 <0>        -0.5905
     13 C8         -7.4726    0.8236    0.5427 C.ar      1 <0>         0.3733
     14 N3         -6.3476    0.1813    0.7800 N.ar      1 <0>        -0.5615
     15 N4        -10.0139   -1.4426    1.6357 N.pl3     1 <0>        -0.8122
     16 N5         -7.3332   -2.8525    2.1494 N.2       1 <0>        -0.3937
     17 C9         -6.0378   -3.0449    2.1771 C.2       1 <0>         0.1963
     18 S1         -5.2413   -4.4986    2.7746 S.3       1 <0>         0.2891
     19 C10        -6.5723   -5.5378    3.2776 C.2       1 <0>         0.0825
     20 N6         -7.8649   -5.3061    3.2225 N.2       1 <0>        -0.4349
     21 C11        -8.7798   -6.2019    3.6472 C.ar      1 <0>         0.0444
     22 C12       -10.1881   -6.0994    3.6532 C.ar      1 <0>         0.1914
     23 N7        -10.9374   -7.0739    4.1074 N.ar      1 <0>        -0.4611
     24 C13       -10.4509   -8.2069    4.5858 C.ar      1 <0>         0.1318
     25 C14        -9.0825   -8.4105    4.6255 C.ar      1 <0>        -0.0360
     26 C15        -8.2571   -7.4149    4.1593 C.ar      1 <0>        -0.1283
     27 S2         -6.5078   -7.1783    3.9852 S.3       1 <0>         0.1242
     28 Cl1        -8.4231   -9.8900    5.2500 Cl        1 <0>        -0.0324
     29 O3         -1.1998   -2.7266   -1.3769 O.3       1 <0>        -0.7492
     30 C16         0.1770   -2.8134   -1.7495 C.3       1 <0>         0.1021
     31 C17         0.2936   -3.4900   -3.1168 C.3       1 <0>        -0.1610
     32 H1          1.0039    1.9031    0.0027 H         1 <0>         0.0794
     33 H2         -0.5459    1.8868   -0.8726 H         1 <0>         0.0666
     34 H3         -0.5289    1.8773    0.9072 H         1 <0>         0.0707
     35 H4          0.5123   -0.3556   -0.8948 H         1 <0>         0.0594
     36 H5          0.5293   -0.3651    0.8851 H         1 <0>         0.0794
     37 H6         -4.0034   -1.7218   -0.6108 H         1 <0>         0.1147
     38 H7         -3.7460   -3.3416    0.0806 H         1 <0>         0.1261
     39 H8         -3.4407   -2.3348    2.3259 H         1 <0>         0.1171
     40 H9         -3.6981   -0.7149    1.6345 H         1 <0>         0.1160
     41 H10        -7.4258    1.8109    0.1075 H         1 <0>         0.2091
     42 H11       -10.0835   -2.3278    2.0262 H         1 <0>         0.4202
     43 H12       -10.8165   -0.9327    1.4438 H         1 <0>         0.4126
     44 H13       -10.6561   -5.2016    3.2771 H         1 <0>         0.1764
     45 H14       -11.1214   -8.9731    4.9459 H         1 <0>         0.1839
     46 H15         0.6029   -1.8114   -1.8025 H         1 <0>         0.0603
     47 H16         0.7182   -3.3995   -1.0068 H         1 <0>         0.0798
     48 H17        -0.1323   -4.4919   -3.0639 H         1 <0>         0.0703
     49 H18        -0.2476   -2.9039   -3.8596 H         1 <0>         0.0660
     50 H19         1.3438   -3.5562   -3.4011 H         1 <0>         0.0803
@<TRIPOS>BOND
     1    1    2 1
     2    1   32 1
     3    1   33 1
     4    1   34 1
     5    2    3 1
     6    2   35 1
     7    2   36 1
     8    3    4 1
     9    4    5 2
    10    4    6 1
    11    4   29 1
    12    6    7 1
    13    6   37 1
    14    6   38 1
    15    7    8 1
    16    7   39 1
    17    7   40 1
    18    8   17 1
    19    8    9 1
    20    9   14 ar
    21    9   10 ar
    22   10   11 ar
    23   10   16 1
    24   11   12 ar
    25   11   15 1
    26   12   13 ar
    27   13   14 ar
    28   13   41 1
    29   15   42 1
    30   15   43 1
    31   16   17 2
    32   17   18 1
    33   18   19 1
    34   19   27 1
    35   19   20 2
    36   20   21 1
    37   21   26 ar
    38   21   22 ar
    39   22   23 ar
    40   22   44 1
    41   23   24 ar
    42   24   25 ar
    43   24   45 1
    44   25   26 ar
    45   25   28 1
    46   26   27 1
    47   29   30 1
    48   30   31 1
    49   30   46 1
    50   30   47 1
    51   31   48 1
    52   31   49 1
    53   31   50 1
@<TRIPOS>MOLECULE
CHEMBL190182
   45    47     0     0     0
SMALL
USER_CHARGES

@<TRIPOS>ATOM
      1 C1         -0.6189    1.4859    0.4023 C.3       1 <0>        -0.1677
      2 C2         -0.4654   -0.0333    0.3059 C.3       1 <0>         0.1149
      3 N1          0.3644   -0.5117    1.4144 N.am      1 <0>        -0.7283
      4 C3          0.6366   -1.8262    1.5340 C.2       1 <0>         0.5809
      5 O1          0.1931   -2.6157    0.7213 O.2       1 <0>        -0.4959
      6 C4          1.4680   -2.3056    2.6448 C.2       1 <0>         0.0370
      7 C5          1.8358   -3.6238    2.8929 C.2       1 <0>        -0.0912
      8 C6          2.6343   -3.6231    4.0596 C.2       1 <0>         0.1208
      9 N2          2.7419   -2.3841    4.4885 N.2       1 <0>        -0.2210
     10 N3          2.0322   -1.5389    3.6279 N.pl3     1 <0>        -0.4552
     11 H1          1.9523   -0.5761    3.7146 H         1 <0>         0.4440
     12 C7          3.2461   -4.8160    4.6924 C.ar      1 <0>        -0.0475
     13 C8          3.9375   -5.7427    3.9143 C.ar      1 <0>        -0.0271
     14 C9          4.5063   -6.8518    4.5058 C.ar      1 <0>        -0.1297
     15 C10         4.3913   -7.0481    5.8767 C.ar      1 <0>         0.1649
     16 C11         3.7045   -6.1307    6.6574 C.ar      1 <0>        -0.1688
     17 C12         3.1360   -5.0117    6.0727 C.ar      1 <0>         0.1693
     18 O2          2.4680   -4.1089    6.8374 O.3       1 <0>        -0.4806
     19 O3          4.9532   -8.1426    6.4539 O.3       1 <0>        -0.4828
     20 Br1         5.4441   -8.1081    3.4485 Br        1 <0>        -0.0263
     21 C13         1.4610   -4.8070    2.0859 C.ar      1 <0>        -0.0530
     22 C14         0.6042   -5.7723    2.6162 C.ar      1 <0>        -0.0573
     23 C15         0.2570   -6.8725    1.8617 C.ar      1 <0>        -0.1507
     24 C16         0.7591   -7.0210    0.5754 C.ar      1 <0>         0.1354
     25 C17         1.6124   -6.0625    0.0446 C.ar      1 <0>        -0.2048
     26 C18         1.9590   -4.9566    0.7911 C.ar      1 <0>        -0.0403
     27 O4          0.4151   -8.1067   -0.1651 O.3       1 <0>        -0.3169
     28 C19         0.9675   -8.1967   -1.4800 C.3       1 <0>         0.0266
     29 H2          0.3638    1.9545    0.3491 H         1 <0>         0.0630
     30 H3         -1.2363    1.8418   -0.4225 H         1 <0>         0.0790
     31 H4         -1.0936    1.7437    1.3491 H         1 <0>         0.0631
     32 H5         -1.4481   -0.5019    0.3591 H         1 <0>         0.0734
     33 H6          0.0093   -0.2911   -0.6409 H         1 <0>         0.0732
     34 H7          0.7179    0.1177    2.0623 H         1 <0>         0.3959
     35 H8          4.0277   -5.5929    2.8485 H         1 <0>         0.1446
     36 H9          3.6165   -6.2869    7.7224 H         1 <0>         0.1498
     37 H10         1.5247   -4.2977    6.9351 H         1 <0>         0.3954
     38 H11         5.8644   -8.0079    6.7484 H         1 <0>         0.3994
     39 H12         0.2139   -5.6578    3.6167 H         1 <0>         0.1239
     40 H13        -0.4061   -7.6201    2.2715 H         1 <0>         0.1311
     41 H14         2.0015   -6.1815   -0.9558 H         1 <0>         0.1282
     42 H15         2.6187   -4.2091    0.3758 H         1 <0>         0.1191
     43 H16         0.6550   -7.3319   -2.0653 H         1 <0>         0.0559
     44 H17         2.0555   -8.2183   -1.4163 H         1 <0>         0.0562
     45 H18         0.6135   -9.1084   -1.9612 H         1 <0>         0.1000
@<TRIPOS>BOND
     1    1    2 1
     2    1   29 1
     3    1   30 1
     4    1   31 1
     5    2    3 1
     6    2   32 1
     7    2   33 1
     8    3    4 am
     9    3   34 1
    10    4    5 2
    11    4    6 1
    12    6   10 1
    13    6    7 2
    14    7    8 1
    15    7   21 1
    16    8    9 2
    17    8   12 1
    18    9   10 1
    19   10   11 1
    20   12   17 ar
    21   12   13 ar
    22   13   14 ar
    23   13   35 1
    24   14   15 ar
    25   14   20 1
    26   15   16 ar
    27   15   19 1
    28   16   17 ar
    29   16   36 1
    30   17   18 1
    31   18   37 1
    32   19   38 1
    33   21   26 ar
    34   21   22 ar
    35   22   23 ar
    36   22   39 1
    37   23   24 ar
    38   23   40 1
    39   24   25 ar
    40   24   27 1
    41   25   26 ar
    42   25   41 1
    43   26   42 1
    44   27   28 1
    45   28   43 1
    46   28   44 1
    47   28   45 1
@<TRIPOS>MOLECULE
CHEMBL190182__1
   45    47     0     0     0
SMALL
USER_CHARGES

@<TRIPOS>ATOM
      1 C1         -0.0187    1.5258    0.0104 C.3       1 <0>        -0.1662
      2 C2          0.0021   -0.0041    0.0020 C.3       1 <0>         0.1146
      3 N1          0.6878   -0.4765   -1.2033 N.am      1 <0>        -0.7208
      4 C3          0.8268   -1.7986   -1.4250 C.2       1 <0>         0.5996
      5 O1          0.3832   -2.5993   -0.6247 O.2       1 <0>        -0.5147
      6 C4          1.5175   -2.2745   -2.6391 C.2       1 <0>        -0.0028
      7 C5          1.7342   -3.6305   -3.0093 C.2       1 <0>        -0.0590
      8 C6          2.4189   -3.5670   -4.2175 C.2       1 <0>         0.0579
      9 N2          2.5745   -2.2429   -4.5037 N.pl3     1 <0>        -0.3675
     10 N3          2.0429   -1.5226   -3.5841 N.2       1 <0>        -0.2478
     11 H1          3.0200   -1.8950   -5.2920 H         1 <0>         0.4492
     12 C7          2.8855   -4.7080   -5.0304 C.ar      1 <0>        -0.0636
     13 C8          4.2525   -4.9240   -5.2152 C.ar      1 <0>        -0.0400
     14 C9          4.6844   -5.9908   -5.9746 C.ar      1 <0>        -0.1321
     15 C10         3.7624   -6.8529   -6.5572 C.ar      1 <0>         0.1692
     16 C11         2.4027   -6.6458   -6.3787 C.ar      1 <0>        -0.1670
     17 C12         1.9583   -5.5810   -5.6140 C.ar      1 <0>         0.1794
     18 O2          0.6269   -5.3802   -5.4343 O.3       1 <0>        -0.4779
     19 O3          4.1950   -7.9020   -7.3046 O.3       1 <0>        -0.4833
     20 Br1         6.5360   -6.2818   -6.2246 Br        1 <0>        -0.0244
     21 C13         1.3208   -4.8449   -2.2693 C.ar      1 <0>        -0.0402
     22 C14         2.2848   -5.7022   -1.7383 C.ar      1 <0>        -0.0629
     23 C15         1.8962   -6.8320   -1.0499 C.ar      1 <0>        -0.1549
     24 C16         0.5474   -7.1169   -0.8850 C.ar      1 <0>         0.1314
     25 C17        -0.4147   -6.2663   -1.4125 C.ar      1 <0>        -0.2067
     26 C18        -0.0335   -5.1313   -2.0967 C.ar      1 <0>        -0.0233
     27 O4          0.1681   -8.2313   -0.2060 O.3       1 <0>        -0.3191
     28 C19        -1.2356   -8.4639   -0.0735 C.3       1 <0>         0.0272
     29 H2          1.0039    1.9031    0.0027 H         1 <0>         0.0625
     30 H3         -0.5459    1.8868   -0.8726 H         1 <0>         0.0623
     31 H4         -0.5289    1.8773    0.9072 H         1 <0>         0.0759
     32 H5          0.5293   -0.3651    0.8851 H         1 <0>         0.0700
     33 H6         -1.0205   -0.3814    0.0098 H         1 <0>         0.0698
     34 H7          1.0417    0.1622   -1.8418 H         1 <0>         0.4060
     35 H8          4.9710   -4.2557   -4.7641 H         1 <0>         0.1438
     36 H9          1.6901   -7.3179   -6.8336 H         1 <0>         0.1509
     37 H10         0.2201   -4.8157   -6.1058 H         1 <0>         0.3961
     38 H11         4.3380   -8.7133   -6.7982 H         1 <0>         0.4019
     39 H12         3.3342   -5.4814   -1.8665 H         1 <0>         0.1224
     40 H13         2.6419   -7.4963   -0.6389 H         1 <0>         0.1291
     41 H14        -1.4630   -6.4912   -1.2826 H         1 <0>         0.1265
     42 H15        -0.7825   -4.4676   -2.5026 H         1 <0>         0.1182
     43 H16        -1.6835   -8.5571   -1.0629 H         1 <0>         0.0550
     44 H17        -1.4001   -9.3836    0.4879 H         1 <0>         0.0992
     45 H18        -1.6940   -7.6284    0.4556 H         1 <0>         0.0561
@<TRIPOS>BOND
     1    1    2 1
     2    1   29 1
     3    1   30 1
     4    1   31 1
     5    2    3 1
     6    2   32 1
     7    2   33 1
     8    3    4 am
     9    3   34 1
    10    4    5 2
    11    4    6 1
    12    6   10 2
    13    6    7 1
    14    7   21 1
    15    7    8 2
    16    8   12 1
    17    8    9 1
    18    9   10 1
    19    9   11 1
    20   12   17 ar
    21   12   13 ar
    22   13   14 ar
    23   13   35 1
    24   14   15 ar
    25   14   20 1
    26   15   16 ar
    27   15   19 1
    28   16   17 ar
    29   16   36 1
    30   17   18 1
    31   18   37 1
    32   19   38 1
    33   21   26 ar
    34   21   22 ar
    35   22   23 ar
    36   22   39 1
    37   23   24 ar
    38   23   40 1
    39   24   25 ar
    40   24   27 1
    41   25   26 ar
    42   25   41 1
    43   26   42 1
    44   27   28 1
    45   28   43 1
    46   28   44 1
    47   28   45 1
@<TRIPOS>MOLECULE
CHEMBL213262
   40    43     0     0     0
SMALL
USER_CHARGES

@<TRIPOS>ATOM
      1 C1         -0.0187    1.5258    0.0104 C.3       1 <0>        -0.1531
      2 C2          0.0021   -0.0041    0.0020 C.3       1 <0>        -0.1198
      3 C3         -1.4333   -0.5336    0.0129 C.3       1 <0>        -0.1379
      4 C4         -1.4126   -2.0635    0.0045 C.3       1 <0>         0.1053
      5 N1         -2.7870   -2.5706    0.0149 N.pl3     1 <0>        -0.4483
      6 C5         -3.5422   -2.8532    1.1291 C.ar      1 <0>         0.3198
      7 C6         -4.7836   -3.3085    0.6548 C.ar      1 <0>        -0.1086
      8 C7         -5.7602   -3.6724    1.5961 C.ar      1 <0>         0.5161
      9 N2         -5.4649   -3.5691    2.8879 N.ar      1 <0>        -0.5924
     10 C8         -4.2833   -3.1354    3.2864 C.ar      1 <0>         0.3707
     11 N3         -3.3377   -2.7837    2.4398 N.ar      1 <0>        -0.5589
     12 N4         -7.0032   -4.1282    1.1875 N.pl3     1 <0>        -0.8147
     13 N5         -4.7311   -3.2838   -0.7002 N.2       1 <0>        -0.3981
     14 C9         -3.5577   -2.8446   -1.0822 C.2       1 <0>         0.1997
     15 S1         -3.0470   -2.6416   -2.7563 S.3       1 <0>         0.2767
     16 C10        -4.4493   -3.1497   -3.6943 C.2       1 <0>         0.0839
     17 N6         -5.6160   -3.5769   -3.2669 N.2       1 <0>        -0.4425
     18 C11        -6.6097   -3.9355   -4.1084 C.ar      1 <0>         0.0925
     19 C12        -7.9020   -4.4085   -3.7815 C.ar      1 <0>        -0.0479
     20 C13        -8.7992   -4.7323   -4.7655 C.ar      1 <0>        -0.1008
     21 C14        -8.4774   -4.6090   -6.1093 C.ar      1 <0>        -0.0793
     22 C15        -7.2218   -4.1488   -6.4658 C.ar      1 <0>         0.0127
     23 C16        -6.3164   -3.8225   -5.4861 C.ar      1 <0>        -0.1475
     24 S2         -4.6496   -3.2076   -5.4694 S.3       1 <0>         0.0895
     25 Cl1        -6.7938   -3.9860   -8.1403 Cl        1 <0>        -0.0494
     26 H1          1.0039    1.9031    0.0027 H         1 <0>         0.0589
     27 H2         -0.5459    1.8868   -0.8726 H         1 <0>         0.0557
     28 H3         -0.5289    1.8773    0.9072 H         1 <0>         0.0552
     29 H4          0.5123   -0.3556   -0.8948 H         1 <0>         0.0675
     30 H5          0.5293   -0.3651    0.8851 H         1 <0>         0.0681
     31 H6         -1.9435   -0.1821    0.9097 H         1 <0>         0.0746
     32 H7         -1.9605   -0.1726   -0.8702 H         1 <0>         0.0720
     33 H8         -0.9024   -2.4150   -0.8923 H         1 <0>         0.0963
     34 H9         -0.8854   -2.4246    0.8875 H         1 <0>         0.1066
     35 H10        -4.0846   -3.0668    4.3457 H         1 <0>         0.2072
     36 H11        -7.2070   -4.1989    0.2418 H         1 <0>         0.4195
     37 H12        -7.6696   -4.3765    1.8471 H         1 <0>         0.4111
     38 H13        -8.1848   -4.5162   -2.7448 H         1 <0>         0.1407
     39 H14        -9.7792   -5.0919   -4.4884 H         1 <0>         0.1472
     40 H15        -9.1990   -4.8699   -6.8694 H         1 <0>         0.1516
@<TRIPOS>BOND
     1    1    2 1
     2    1   26 1
     3    1   27 1
     4    1   28 1
     5    2    3 1
     6    2   29 1
     7    2   30 1
     8    3    4 1
     9    3   31 1
    10    3   32 1
    11    4    5 1
    12    4   33 1
    13    4   34 1
    14    5   14 1
    15    5    6 1
    16    6   11 ar
    17    6    7 ar
    18    7    8 ar
    19    7   13 1
    20    8    9 ar
    21    8   12 1
    22    9   10 ar
    23   10   11 ar
    24   10   35 1
    25   12   36 1
    26   12   37 1
    27   13   14 2
    28   14   15 1
    29   15   16 1
    30   16   24 1
    31   16   17 2
    32   17   18 1
    33   18   23 ar
    34   18   19 ar
    35   19   20 ar
    36   19   38 1
    37   20   21 ar
    38   20   39 1
    39   21   22 ar
    40   21   40 1
    41   22   23 ar
    42   22   25 1
    43   23   24 1
@<TRIPOS>MOLECULE
CHEMBL377958
   39    42     0     0     0
SMALL
USER_CHARGES

@<TRIPOS>ATOM
      1 C1         -0.0187    1.5258    0.0104 C.3       1 <0>        -0.1532
      2 C2          0.0021   -0.0041    0.0020 C.3       1 <0>        -0.1199
      3 C3          0.7421   -0.5109    1.2415 C.3       1 <0>        -0.1380
      4 C4          0.7628   -2.0407    1.2331 C.3       1 <0>         0.1051
      5 N1          1.4714   -2.5260    2.4200 N.pl3     1 <0>        -0.4479
      6 C5          2.8206   -2.7745    2.5180 C.ar      1 <0>         0.3211
      7 C6          3.0416   -3.2202    3.8317 C.ar      1 <0>        -0.1089
      8 C7          4.3538   -3.5500    4.2082 C.ar      1 <0>         0.5170
      9 N2          5.3222   -3.4253    3.3063 N.ar      1 <0>        -0.5922
     10 C8          5.0658   -3.0019    2.0823 C.ar      1 <0>         0.3722
     11 N3          3.8516   -2.6816    1.6855 N.ar      1 <0>        -0.5594
     12 N4          4.6326   -3.9947    5.4904 N.pl3     1 <0>        -0.8138
     13 N5          1.8416   -3.2236    4.4635 N.2       1 <0>        -0.3975
     14 C9          0.9136   -2.8099    3.6369 C.2       1 <0>         0.1966
     15 S1         -0.7962   -2.6480    4.0310 S.3       1 <0>         0.2843
     16 C10        -0.8948   -3.1530    5.7162 C.2       1 <0>         0.0847
     17 N6          0.0696   -3.5538    6.5142 N.2       1 <0>        -0.4335
     18 C11        -0.1531   -3.9136    7.7951 C.ar      1 <0>         0.0447
     19 C12         0.7695   -4.3615    8.7658 C.ar      1 <0>         0.1916
     20 N7          0.3809   -4.6742    9.9777 N.ar      1 <0>        -0.4611
     21 C13        -0.8755   -4.5985   10.3840 C.ar      1 <0>         0.1319
     22 C14        -1.8607   -4.1708    9.5111 C.ar      1 <0>        -0.0366
     23 C15        -1.4992   -3.8319    8.2288 C.ar      1 <0>        -0.1274
     24 S2         -2.3310   -3.2428    6.7771 S.3       1 <0>         0.1176
     25 Cl1        -3.5158   -4.0648   10.0240 Cl        1 <0>        -0.0330
     26 H1          1.0039    1.9031    0.0027 H         1 <0>         0.0553
     27 H2         -0.5459    1.8868   -0.8726 H         1 <0>         0.0590
     28 H3         -0.5289    1.8773    0.9072 H         1 <0>         0.0557
     29 H4         -1.0205   -0.3814    0.0098 H         1 <0>         0.0674
     30 H5          0.5123   -0.3556   -0.8948 H         1 <0>         0.0683
     31 H6          1.7647   -0.1336    1.2338 H         1 <0>         0.0750
     32 H7          0.2319   -0.1594    2.1383 H         1 <0>         0.0719
     33 H8         -0.2598   -2.4180    1.2409 H         1 <0>         0.0962
     34 H9          1.2730   -2.3923    0.3363 H         1 <0>         0.1071
     35 H10         5.8822   -2.9146    1.3806 H         1 <0>         0.2075
     36 H11         3.9174   -4.0813    6.1399 H         1 <0>         0.4196
     37 H12         5.5430   -4.2195    5.7386 H         1 <0>         0.4118
     38 H13         1.8139   -4.4481    8.5048 H         1 <0>         0.1770
     39 H14        -1.1326   -4.8708   11.3970 H         1 <0>         0.1837
@<TRIPOS>BOND
     1    1    2 1
     2    1   26 1
     3    1   27 1
     4    1   28 1
     5    2    3 1
     6    2   29 1
     7    2   30 1
     8    3    4 1
     9    3   31 1
    10    3   32 1
    11    4    5 1
    12    4   33 1
    13    4   34 1
    14    5   14 1
    15    5    6 1
    16    6   11 ar
    17    6    7 ar
    18    7    8 ar
    19    7   13 1
    20    8    9 ar
    21    8   12 1
    22    9   10 ar
    23   10   11 ar
    24   10   35 1
    25   12   36 1
    26   12   37 1
    27   13   14 2
    28   14   15 1
    29   15   16 1
    30   16   24 1
    31   16   17 2
    32   17   18 1
    33   18   23 ar
    34   18   19 ar
    35   19   20 ar
    36   19   38 1
    37   20   21 ar
    38   21   22 ar
    39   21   39 1
    40   22   23 ar
    41   22   25 1
    42   23   24 1
@<TRIPOS>MOLECULE
CHEMBL207307
   54    57     0     0     0
SMALL
USER_CHARGES

@<TRIPOS>ATOM
      1 C1          0.7316    1.8057    0.2628 C.3       1 <0>        -0.6502
      2 S1          0.6293   -0.0048    0.2139 S.o2      1 <0>         2.4986
      3 O1          1.5071   -0.5707    1.1774 O.2       1 <0>        -0.9377
      4 O2         -0.7288   -0.4165    0.1409 O.2       1 <0>        -0.9385
      5 C2          1.3201   -0.4554   -1.3432 C.ar      1 <0>        -0.6592
      6 C3          0.5080   -0.5519   -2.4577 C.ar      1 <0>        -0.0233
      7 C4          1.0499   -0.9055   -3.6792 C.ar      1 <0>        -0.1358
      8 C5          2.4040   -1.1621   -3.7864 C.ar      1 <0>        -0.0196
      9 C6          3.2162   -1.0647   -2.6721 C.ar      1 <0>        -0.1173
     10 C7          2.6750   -0.7070   -1.4514 C.ar      1 <0>        -0.0226
     11 C8          2.9946   -1.5485   -5.1179 C.3       1 <0>         0.0849
     12 N1          3.4170   -0.3385   -5.8359 N.3       1 <0>        -0.5273
     13 C9          2.2550    0.4259   -6.3085 C.3       1 <0>         0.0356
     14 C10         2.7289    1.7626   -6.8888 C.3       1 <0>         0.1471
     15 N2          3.7524    1.4921   -7.9098 N.pl3     1 <0>        -0.6457
     16 C11         4.8801    0.6190   -7.5505 C.3       1 <0>         0.1456
     17 C12         4.3216   -0.6728   -6.9440 C.3       1 <0>         0.0418
     18 C13         3.6551    2.0532   -9.1961 C.2       1 <0>         0.0368
     19 C14         3.0409    1.4942  -10.2668 C.2       1 <0>         0.0507
     20 N3          3.1692    2.3525  -11.3145 N.pl3     1 <0>        -0.4742
     21 H1          2.8252    2.2129  -12.2107 H         1 <0>         0.4454
     22 N4          3.8843    3.4731  -10.8733 N.2       1 <0>        -0.2525
     23 C15         4.1748    3.3023   -9.6004 C.2       1 <0>         0.1054
     24 C16         4.9202    4.2546   -8.7419 C.ar      1 <0>        -0.0461
     25 C17         5.2091    3.9242   -7.4194 C.ar      1 <0>        -0.0438
     26 C18         5.9028    4.8121   -6.6228 C.ar      1 <0>        -0.1352
     27 C19         6.3141    6.0361   -7.1358 C.ar      1 <0>         0.1599
     28 C20         6.0298    6.3719   -8.4509 C.ar      1 <0>        -0.1738
     29 C21         5.3400    5.4840   -9.2590 C.ar      1 <0>         0.1646
     30 O3          5.0665    5.8091  -10.5496 O.3       1 <0>        -0.4760
     31 O4          6.9967    6.9068   -6.3465 O.3       1 <0>        -0.4844
     32 Br1         6.2941    4.3621   -4.8282 Br        1 <0>        -0.0292
     33 H2          1.7741    2.1131    0.1800 H         1 <0>         0.1320
     34 H3          0.1623    2.2243   -0.5672 H         1 <0>         0.1314
     35 H4          0.3198    2.1676    1.2049 H         1 <0>         0.1331
     36 H5         -0.5499   -0.3514   -2.3739 H         1 <0>         0.1412
     37 H6          0.4153   -0.9815   -4.5498 H         1 <0>         0.1289
     38 H7          4.2741   -1.2656   -2.7557 H         1 <0>         0.1336
     39 H8          3.3102   -0.6273   -0.5816 H         1 <0>         0.1420
     40 H9          3.8567   -2.1962   -4.9587 H         1 <0>         0.0892
     41 H10         2.2462   -2.0781   -5.7074 H         1 <0>         0.0495
     42 H11         1.7356   -0.1420   -7.0803 H         1 <0>         0.0375
     43 H12         1.5778    0.6110   -5.4747 H         1 <0>         0.0839
     44 H13         1.8864    2.2834   -7.3439 H         1 <0>         0.0734
     45 H14         3.1563    2.3754   -6.0952 H         1 <0>         0.0599
     46 H15         5.4599    0.3836   -8.4430 H         1 <0>         0.0751
     47 H16         5.5143    1.1218   -6.8204 H         1 <0>         0.0608
     48 H17         5.1431   -1.2844   -6.5712 H         1 <0>         0.0828
     49 H18         3.7733   -1.2254   -7.7070 H         1 <0>         0.0379
     50 H19         2.5396    0.5377  -10.2853 H         1 <0>         0.1759
     51 H20         4.8899    2.9738   -7.0180 H         1 <0>         0.1673
     52 H21         6.3507    7.3243   -8.8463 H         1 <0>         0.1469
     53 H22         4.2250    6.2704  -10.6691 H         1 <0>         0.3954
     54 H23         7.9567    6.7946   -6.3756 H         1 <0>         0.3982
@<TRIPOS>BOND
     1    1    2 1
     2    1   33 1
     3    1   34 1
     4    1   35 1
     5    2    3 2
     6    2    4 2
     7    2    5 1
     8    5   10 ar
     9    5    6 ar
    10    6    7 ar
    11    6   36 1
    12    7    8 ar
    13    7   37 1
    14    8    9 ar
    15    8   11 1
    16    9   10 ar
    17    9   38 1
    18   10   39 1
    19   11   12 1
    20   11   40 1
    21   11   41 1
    22   12   17 1
    23   12   13 1
    24   13   14 1
    25   13   42 1
    26   13   43 1
    27   14   15 1
    28   14   44 1
    29   14   45 1
    30   15   16 1
    31   15   18 1
    32   16   17 1
    33   16   46 1
    34   16   47 1
    35   17   48 1
    36   17   49 1
    37   18   23 1
    38   18   19 2
    39   19   20 1
    40   19   50 1
    41   20   21 1
    42   20   22 1
    43   22   23 2
    44   23   24 1
    45   24   29 ar
    46   24   25 ar
    47   25   26 ar
    48   25   51 1
    49   26   27 ar
    50   26   32 1
    51   27   28 ar
    52   27   31 1
    53   28   29 ar
    54   28   52 1
    55   29   30 1
    56   30   53 1
    57   31   54 1
@<TRIPOS>MOLECULE
CHEMBL207307__1
   55    58     0     0     0
SMALL
USER_CHARGES

@<TRIPOS>ATOM
      1 C1         -0.0225    1.8097    0.0120 C.3       1 <0>        -0.6470
      2 S1          0.0021   -0.0041    0.0020 S.o2      1 <0>         2.4912
      3 O1          0.8352   -0.4880    1.0465 O.2       1 <0>        -0.9251
      4 O2         -1.3147   -0.5105   -0.1678 O.2       1 <0>        -0.9254
      5 C2          0.8454   -0.4373   -1.4831 C.ar      1 <0>        -0.6316
      6 C3          0.1346   -0.6126   -2.6557 C.ar      1 <0>        -0.0182
      7 C4          0.7962   -0.9525   -3.8208 C.ar      1 <0>        -0.1164
      8 C5          2.1688   -1.1167   -3.8136 C.ar      1 <0>        -0.1064
      9 C6          2.8797   -0.9405   -2.6412 C.ar      1 <0>        -0.1126
     10 C7          2.2186   -0.5964   -1.4770 C.ar      1 <0>        -0.0168
     11 C8          2.8899   -1.4882   -5.0836 C.3       1 <0>         0.0372
     12 N1          3.2864   -0.2667   -5.7968 N.4       1 <0>        -0.3791
     13 C9          2.0844    0.4629   -6.2199 C.3       1 <0>        -0.0306
     14 C10         2.4945    1.7922   -6.8621 C.3       1 <0>         0.1308
     15 N2          3.4476    1.5114   -7.9470 N.pl3     1 <0>        -0.6364
     16 C11         4.6013    0.6483   -7.6501 C.3       1 <0>         0.1218
     17 C12         4.0917   -0.6270   -6.9706 C.3       1 <0>        -0.0241
     18 C13         3.2615    2.0529   -9.2307 C.2       1 <0>         0.0347
     19 C14         3.7558    3.2787   -9.6907 C.2       1 <0>         0.0520
     20 N3          3.3805    3.4424  -10.9338 N.2       1 <0>        -0.2633
     21 H1          2.2273    2.1927  -12.2026 H         1 <0>         0.4476
     22 N4          2.6280    2.3300  -11.3300 N.pl3     1 <0>        -0.4592
     23 C15         2.5627    1.4693  -10.2690 C.2       1 <0>         0.1232
     24 C16         1.8721    0.1630  -10.2385 C.ar      1 <0>        -0.0682
     25 C17         2.3198   -0.8846  -11.0444 C.ar      1 <0>        -0.0407
     26 C18         1.6729   -2.1027  -11.0129 C.ar      1 <0>        -0.1314
     27 C19         0.5757   -2.2897  -10.1809 C.ar      1 <0>         0.1706
     28 C20         0.1242   -1.2534   -9.3771 C.ar      1 <0>        -0.1731
     29 C21         0.7699   -0.0294   -9.3966 C.ar      1 <0>         0.1624
     30 O3          0.3321    0.9845   -8.6050 O.3       1 <0>        -0.4934
     31 O4         -0.0574   -3.4922  -10.1550 O.3       1 <0>        -0.4780
     32 Br1         2.2805   -3.5215  -12.1055 Br        1 <0>        -0.0094
     33 H2          1.0001    2.1870    0.0043 H         1 <0>         0.1331
     34 H3         -0.5497    2.1708   -0.8711 H         1 <0>         0.1328
     35 H4         -0.5327    2.1613    0.9088 H         1 <0>         0.1412
     36 H5         -0.9378   -0.4844   -2.6614 H         1 <0>         0.1551
     37 H6          0.2407   -1.0902   -4.7367 H         1 <0>         0.1416
     38 H7          3.9520   -1.0690   -2.6355 H         1 <0>         0.1431
     39 H8          2.7745   -0.4551   -0.5619 H         1 <0>         0.1556
     40 H9          3.7781   -2.0711   -4.8398 H         1 <0>         0.1419
     41 H10         2.2292   -2.0804   -5.7167 H         1 <0>         0.1366
     42 H11         1.5320   -0.1357   -6.9443 H         1 <0>         0.1337
     43 H12         1.4534    0.6576   -5.3527 H         1 <0>         0.1328
     44 H13         1.6139    2.2900   -7.2680 H         1 <0>         0.1233
     45 H14         2.9674    2.4295   -6.1149 H         1 <0>         0.0719
     46 H15         5.1136    0.3899   -8.5768 H         1 <0>         0.1142
     47 H16         5.2869    1.1702   -6.9824 H         1 <0>         0.0801
     48 H17         4.9399   -1.2353   -6.6566 H         1 <0>         0.1368
     49 H18         3.4787   -1.1925   -7.6723 H         1 <0>         0.1261
     50 H19         4.3483    3.9745   -9.1152 H         1 <0>         0.1876
     51 H20         3.1718   -0.7418  -11.6925 H         1 <0>         0.1458
     52 H21        -0.7292   -1.4032   -8.7323 H         1 <0>         0.1518
     53 H22        -0.3345    1.5484   -9.0207 H         1 <0>         0.4056
     54 H23         0.2965   -4.1089   -9.4997 H         1 <0>         0.4022
     55 H24         3.8327    0.3179   -5.1821 H         1 <0>         0.4216
@<TRIPOS>BOND
     1    1    2 1
     2    1   33 1
     3    1   34 1
     4    1   35 1
     5    2    3 2
     6    2    4 2
     7    2    5 1
     8    5   10 ar
     9    5    6 ar
    10    6    7 ar
    11    6   36 1
    12    7    8 ar
    13    7   37 1
    14    8    9 ar
    15    8   11 1
    16    9   10 ar
    17    9   38 1
    18   10   39 1
    19   11   12 1
    20   11   40 1
    21   11   41 1
    22   12   17 1
    23   12   13 1
    24   12   55 1
    25   13   14 1
    26   13   42 1
    27   13   43 1
    28   14   15 1
    29   14   44 1
    30   14   45 1
    31   15   16 1
    32   15   18 1
    33   16   17 1
    34   16   46 1
    35   16   47 1
    36   17   48 1
    37   17   49 1
    38   18   19 1
    39   18   23 2
    40   19   20 2
    41   19   50 1
    42   20   22 1
    43   21   22 1
    44   22   23 1
    45   23   24 1
    46   24   29 ar
    47   24   25 ar
    48   25   26 ar
    49   25   51 1
    50   26   27 ar
    51   26   32 1
    52   27   28 ar
    53   27   31 1
    54   28   29 ar
    55   28   52 1
    56   29   30 1
    57   30   53 1
    58   31   54 1
@<TRIPOS>MOLECULE
CHEMBL207307__2
   55    58     0     0     0
SMALL
USER_CHARGES

@<TRIPOS>ATOM
      1 C1          0.0214    2.5426   -0.0581 C.3       1 <0>        -0.6471
      2 S1         -0.1699    0.7399    0.0068 S.o2      1 <0>         2.4910
      3 O1          0.5931    0.2051    1.0796 O.2       1 <0>        -0.9248
      4 O2         -1.5364    0.3865   -0.1571 O.2       1 <0>        -0.9252
      5 C2          0.6254    0.1475   -1.4496 C.ar      1 <0>        -0.6311
      6 C3         -0.0937    0.0084   -2.6220 C.ar      1 <0>        -0.0183
      7 C4          0.5302   -0.4564   -3.7646 C.ar      1 <0>        -0.1177
      8 C5          1.8734   -0.7817   -3.7350 C.ar      1 <0>        -0.1086
      9 C6          2.5928   -0.6418   -2.5629 C.ar      1 <0>        -0.1122
     10 C7          1.9699   -0.1729   -1.4214 C.ar      1 <0>        -0.0165
     11 C8          2.5534   -1.2893   -4.9804 C.3       1 <0>         0.0375
     12 N1          3.0969   -0.1546   -5.7387 N.4       1 <0>        -0.3808
     13 C9          1.9916    0.6792   -6.2278 C.3       1 <0>        -0.0307
     14 C10         2.5590    1.9230   -6.9199 C.3       1 <0>         0.1166
     15 N2          3.4992    1.4875   -7.9641 N.pl3     1 <0>        -0.6417
     16 C11         4.5446    0.5201   -7.5961 C.3       1 <0>         0.1135
     17 C12         3.8835   -0.6574   -6.8720 C.3       1 <0>        -0.0226
     18 C13         3.4012    1.9817   -9.2775 C.2       1 <0>         0.0091
     19 C14         2.7348    1.3978  -10.3027 C.2       1 <0>         0.0672
     20 N3          2.8827    2.1897  -11.3991 N.pl3     1 <0>        -0.4649
     21 H1          2.5114    2.0195  -12.2789 H         1 <0>         0.4519
     22 N4          3.6640    3.2938  -11.0356 N.2       1 <0>        -0.2398
     23 C15         3.9745    3.1780   -9.7612 C.2       1 <0>         0.1150
     24 C16         4.7872    4.1355   -8.9724 C.ar      1 <0>        -0.0545
     25 C17         5.1522    3.8291   -7.6630 C.ar      1 <0>        -0.0482
     26 C18         5.9083    4.7218   -6.9312 C.ar      1 <0>        -0.1400
     27 C19         6.3069    5.9268   -7.4966 C.ar      1 <0>         0.1702
     28 C20         5.9470    6.2387   -8.7990 C.ar      1 <0>        -0.1690
     29 C21         5.1941    5.3457   -9.5425 C.ar      1 <0>         0.1738
     30 O3          4.8463    5.6473  -10.8209 O.3       1 <0>        -0.4743
     31 O4          7.0511    6.8024   -6.7710 O.3       1 <0>        -0.4828
     32 Br1         6.4027    4.3044   -5.1544 Br        1 <0>        -0.0310
     33 H2          1.0816    2.7953   -0.0697 H         1 <0>         0.1332
     34 H3         -0.4534    2.9261   -0.9612 H         1 <0>         0.1329
     35 H4         -0.4491    2.9897    0.8176 H         1 <0>         0.1414
     36 H5         -1.1431    0.2626   -2.6451 H         1 <0>         0.1554
     37 H6         -0.0318   -0.5657   -4.6803 H         1 <0>         0.1424
     38 H7          3.6421   -0.8962   -2.5397 H         1 <0>         0.1433
     39 H8          2.5327   -0.0601   -0.5066 H         1 <0>         0.1557
     40 H9          3.3644   -1.9626   -4.7028 H         1 <0>         0.1430
     41 H10         1.8309   -1.8251   -5.5961 H         1 <0>         0.1406
     42 H11         1.3931    0.1092   -6.9383 H         1 <0>         0.1337
     43 H12         1.3669    0.9837   -5.3881 H         1 <0>         0.1363
     44 H13         1.7474    2.4927   -7.3723 H         1 <0>         0.1188
     45 H14         3.0823    2.5413   -6.1906 H         1 <0>         0.0786
     46 H15         5.0457    0.1623   -8.4955 H         1 <0>         0.1208
     47 H16         5.2684    0.9968   -6.9350 H         1 <0>         0.0794
     48 H17         4.6528   -1.3379   -6.5071 H         1 <0>         0.1390
     49 H18         3.2277   -1.1871   -7.5631 H         1 <0>         0.1336
     50 H19         2.1850    0.4693  -10.2577 H         1 <0>         0.1795
     51 H20         4.8431    2.8935   -7.2210 H         1 <0>         0.1506
     52 H21         6.2582    7.1764   -9.2352 H         1 <0>         0.1522
     53 H22         4.0067    6.1206  -10.8988 H         1 <0>         0.3995
     54 H23         8.0055    6.6727   -6.8567 H         1 <0>         0.4036
     55 H24         3.6904    0.3969   -5.1373 H         1 <0>         0.4227
@<TRIPOS>BOND
     1    1    2 1
     2    1   33 1
     3    1   34 1
     4    1   35 1
     5    2    3 2
     6    2    4 2
     7    2    5 1
     8    5   10 ar
     9    5    6 ar
    10    6    7 ar
    11    6   36 1
    12    7    8 ar
    13    7   37 1
    14    8    9 ar
    15    8   11 1
    16    9   10 ar
    17    9   38 1
    18   10   39 1
    19   11   12 1
    20   11   40 1
    21   11   41 1
    22   12   17 1
    23   12   13 1
    24   12   55 1
    25   13   14 1
    26   13   42 1
    27   13   43 1
    28   14   15 1
    29   14   44 1
    30   14   45 1
    31   15   16 1
    32   15   18 1
    33   16   17 1
    34   16   46 1
    35   16   47 1
    36   17   48 1
    37   17   49 1
    38   18   23 1
    39   18   19 2
    40   19   20 1
    41   19   50 1
    42   20   21 1
    43   20   22 1
    44   22   23 2
    45   23   24 1
    46   24   29 ar
    47   24   25 ar
    48   25   26 ar
    49   25   51 1
    50   26   27 ar
    51   26   32 1
    52   27   28 ar
    53   27   31 1
    54   28   29 ar
    55   28   52 1
    56   29   30 1
    57   30   53 1
    58   31   54 1
@<TRIPOS>MOLECULE
CHEMBL207307__3
   54    57     0     0     0
SMALL
USER_CHARGES

@<TRIPOS>ATOM
      1 C1         -0.0225    1.8097    0.0120 C.3       1 <0>        -0.6502
      2 S1          0.0021   -0.0041    0.0020 S.o2      1 <0>         2.4991
      3 O1          0.8352   -0.4880    1.0465 O.2       1 <0>        -0.9378
      4 O2         -1.3147   -0.5105   -0.1678 O.2       1 <0>        -0.9385
      5 C2          0.8454   -0.4373   -1.4831 C.ar      1 <0>        -0.6596
      6 C3          0.1346   -0.6126   -2.6557 C.ar      1 <0>        -0.0237
      7 C4          0.7962   -0.9525   -3.8208 C.ar      1 <0>        -0.1344
      8 C5          2.1688   -1.1167   -3.8136 C.ar      1 <0>        -0.0197
      9 C6          2.8797   -0.9405   -2.6412 C.ar      1 <0>        -0.1178
     10 C7          2.2186   -0.5964   -1.4770 C.ar      1 <0>        -0.0229
     11 C8          2.8899   -1.4882   -5.0836 C.3       1 <0>         0.0857
     12 N1          3.2864   -0.2667   -5.7968 N.3       1 <0>        -0.5282
     13 C9          2.1081    0.4780   -6.2606 C.3       1 <0>         0.0381
     14 C10         2.5541    1.8265   -6.8357 C.3       1 <0>         0.1608
     15 N2          3.5783    1.5808   -7.8624 N.pl3     1 <0>        -0.6405
     16 C11         4.7238    0.7273   -7.5123 C.3       1 <0>         0.1524
     17 C12         4.1924   -0.5779   -6.9105 C.3       1 <0>         0.0433
     18 C13         3.4650    2.1463   -9.1443 C.2       1 <0>         0.0644
     19 C14         3.9687    3.3881   -9.5477 C.2       1 <0>         0.0438
     20 N3          3.6698    3.5725  -10.8085 N.2       1 <0>        -0.2767
     21 H1          2.6176    2.3336  -12.1722 H         1 <0>         0.4412
     22 N4          2.9605    2.4583  -11.2734 N.pl3     1 <0>        -0.4689
     23 C15         2.8418    1.5748  -10.2360 C.2       1 <0>         0.1036
     24 C16         2.1704    0.2588  -10.2752 C.ar      1 <0>        -0.0571
     25 C17         2.6836   -0.7655  -11.0720 C.ar      1 <0>        -0.0427
     26 C18         2.0545   -1.9928  -11.1057 C.ar      1 <0>        -0.1312
     27 C19         0.9101   -2.2123  -10.3485 C.ar      1 <0>         0.1641
     28 C20         0.3934   -1.1993   -9.5543 C.ar      1 <0>        -0.1705
     29 C21         1.0205    0.0336   -9.5086 C.ar      1 <0>         0.1770
     30 O3          0.5185    1.0247   -8.7262 O.3       1 <0>        -0.4787
     31 O4          0.2949   -3.4237  -10.3865 O.3       1 <0>        -0.4827
     32 Br1         2.7509   -3.3801  -12.1857 Br        1 <0>        -0.0246
     33 H2          1.0001    2.1870    0.0043 H         1 <0>         0.1319
     34 H3         -0.5497    2.1708   -0.8711 H         1 <0>         0.1313
     35 H4         -0.5327    2.1613    0.9088 H         1 <0>         0.1330
     36 H5         -0.9378   -0.4844   -2.6614 H         1 <0>         0.1411
     37 H6          0.2407   -1.0902   -4.7367 H         1 <0>         0.1284
     38 H7          3.9520   -1.0690   -2.6355 H         1 <0>         0.1338
     39 H8          2.7745   -0.4551   -0.5619 H         1 <0>         0.1422
     40 H9          3.7781   -2.0711   -4.8398 H         1 <0>         0.0876
     41 H10         2.2292   -2.0804   -5.7167 H         1 <0>         0.0447
     42 H11         1.5962   -0.0956   -7.0332 H         1 <0>         0.0460
     43 H12         1.4311    0.6459   -5.4230 H         1 <0>         0.0777
     44 H13         1.7000    2.3337   -7.2846 H         1 <0>         0.0791
     45 H14         2.9733    2.4431   -6.0406 H         1 <0>         0.0488
     46 H15         5.3041    0.5077   -8.4085 H         1 <0>         0.0688
     47 H16         5.3515    1.2382   -6.7822 H         1 <0>         0.0589
     48 H17         5.0269   -1.1759   -6.5443 H         1 <0>         0.0785
     49 H18         3.6514   -1.1368   -7.6741 H         1 <0>         0.0325
     50 H19         4.5132    4.0798   -8.9221 H         1 <0>         0.1842
     51 H20         3.5724   -0.5975  -11.6620 H         1 <0>         0.1418
     52 H21        -0.4964   -1.3743   -8.9677 H         1 <0>         0.1482
     53 H22        -0.1290    1.5878   -9.1719 H         1 <0>         0.3946
     54 H23         0.6162   -4.0490   -9.7226 H         1 <0>         0.3999
@<TRIPOS>BOND
     1    1    2 1
     2    1   33 1
     3    1   34 1
     4    1   35 1
     5    2    3 2
     6    2    4 2
     7    2    5 1
     8    5   10 ar
     9    5    6 ar
    10    6    7 ar
    11    6   36 1
    12    7    8 ar
    13    7   37 1
    14    8    9 ar
    15    8   11 1
    16    9   10 ar
    17    9   38 1
    18   10   39 1
    19   11   12 1
    20   11   40 1
    21   11   41 1
    22   12   17 1
    23   12   13 1
    24   13   14 1
    25   13   42 1
    26   13   43 1
    27   14   15 1
    28   14   44 1
    29   14   45 1
    30   15   16 1
    31   15   18 1
    32   16   17 1
    33   16   46 1
    34   16   47 1
    35   17   48 1
    36   17   49 1
    37   18   19 1
    38   18   23 2
    39   19   20 2
    40   19   50 1
    41   20   22 1
    42   21   22 1
    43   22   23 1
    44   23   24 1
    45   24   29 ar
    46   24   25 ar
    47   25   26 ar
    48   25   51 1
    49   26   27 ar
    50   26   32 1
    51   27   28 ar
    52   27   31 1
    53   28   29 ar
    54   28   52 1
    55   29   30 1
    56   30   53 1
    57   31   54 1
@<TRIPOS>MOLECULE
CHEMBL251974
   48    51     0     0     0
SMALL
USER_CHARGES

@<TRIPOS>ATOM
      1 C1         -0.0200    1.4814    0.0570 C.ar      1 <0>        -0.1194
      2 C2          1.1736    2.1787    0.0495 C.ar      1 <0>        -0.1209
      3 C3          2.3741    1.4938    0.0246 C.ar      1 <0>        -0.1157
      4 C4          2.3810    0.1116    0.0077 C.ar      1 <0>        -0.0785
      5 C5          1.1875   -0.5857    0.0160 C.ar      1 <0>        -0.0972
      6 C6         -0.0130    0.0992    0.0395 C.ar      1 <0>        -0.1201
      7 C7          3.6898   -0.6350   -0.0205 C.3       1 <0>         0.0944
      8 N1          4.1351   -0.8946    1.3551 N.3       1 <0>        -0.5279
      9 C8          4.4548    0.3594    2.0504 C.3       1 <0>         0.0373
     10 C9          4.7386    0.0629    3.5268 C.3       1 <0>         0.1477
     11 N2          5.7793   -0.9735    3.6036 N.pl3     1 <0>        -0.6458
     12 C10         5.5934   -2.2055    2.8220 C.3       1 <0>         0.1463
     13 C11         5.2760   -1.8198    1.3734 C.3       1 <0>         0.0412
     14 C12         6.9219   -0.7915    4.4036 C.2       1 <0>         0.0390
     15 C13         8.1199   -0.3140    3.9879 C.2       1 <0>         0.0488
     16 N3          8.9543   -0.2926    5.0624 N.pl3     1 <0>        -0.4748
     17 H1          9.8781    0.0030    5.0604 H         1 <0>         0.4451
     18 N4          8.2464   -0.7717    6.1719 N.2       1 <0>        -0.2511
     19 C14         7.0233   -1.0680    5.7846 C.2       1 <0>         0.1040
     20 C15         5.9418   -1.6019    6.6476 C.ar      1 <0>        -0.0383
     21 C16         4.7285   -1.9938    6.0853 C.ar      1 <0>        -0.0629
     22 C17         3.7238   -2.4903    6.8906 C.ar      1 <0>        -0.0772
     23 C18         3.9187   -2.6003    8.2622 C.ar      1 <0>         0.1415
     24 C19         5.1234   -2.2122    8.8285 C.ar      1 <0>        -0.1679
     25 C20         6.1389   -1.7189    8.0268 C.ar      1 <0>         0.1533
     26 O1          7.3221   -1.3440    8.5799 O.3       1 <0>        -0.4755
     27 O2          2.9254   -3.0891    9.0507 O.3       1 <0>        -0.4851
     28 Cl1         2.2128   -2.9781    6.1888 Cl        1 <0>        -0.0486
     29 H2         -0.9578    2.0164    0.0810 H         1 <0>         0.1205
     30 H3          1.1682    3.2586    0.0628 H         1 <0>         0.1206
     31 H4          3.3066    2.0386    0.0181 H         1 <0>         0.1167
     32 H5          1.1929   -1.6656    0.0024 H         1 <0>         0.1219
     33 H6         -0.9455   -0.4456    0.0457 H         1 <0>         0.1215
     34 H7          3.5568   -1.5818   -0.5440 H         1 <0>         0.0836
     35 H8          4.4389   -0.0358   -0.5380 H         1 <0>         0.0414
     36 H9          5.3347    0.8137    1.5949 H         1 <0>         0.0342
     37 H10         3.6101    1.0439    1.9726 H         1 <0>         0.0854
     38 H11         5.0872    0.9693    4.0218 H         1 <0>         0.0719
     39 H12         3.8292   -0.2947    4.0098 H         1 <0>         0.0596
     40 H13         6.5073   -2.7990    2.8511 H         1 <0>         0.0740
     41 H14         4.7663   -2.7813    3.2373 H         1 <0>         0.0599
     42 H15         5.0269   -2.7157    0.8046 H         1 <0>         0.0812
     43 H16         6.1445   -1.3351    0.9274 H         1 <0>         0.0359
     44 H17         8.3683   -0.0058    2.9830 H         1 <0>         0.1757
     45 H18         4.5744   -1.9086    5.0197 H         1 <0>         0.1669
     46 H19         5.2714   -2.2991    9.8948 H         1 <0>         0.1470
     47 H20         7.3519   -0.4171    8.8541 H         1 <0>         0.3936
     48 H21         2.9530   -4.0485    9.1686 H         1 <0>         0.3967
@<TRIPOS>BOND
     1    1    6 ar
     2    1    2 ar
     3    1   29 1
     4    2    3 ar
     5    2   30 1
     6    3    4 ar
     7    3   31 1
     8    4    5 ar
     9    4    7 1
    10    5    6 ar
    11    5   32 1
    12    6   33 1
    13    7    8 1
    14    7   34 1
    15    7   35 1
    16    8   13 1
    17    8    9 1
    18    9   10 1
    19    9   36 1
    20    9   37 1
    21   10   11 1
    22   10   38 1
    23   10   39 1
    24   11   12 1
    25   11   14 1
    26   12   13 1
    27   12   40 1
    28   12   41 1
    29   13   42 1
    30   13   43 1
    31   14   19 1
    32   14   15 2
    33   15   16 1
    34   15   44 1
    35   16   17 1
    36   16   18 1
    37   18   19 2
    38   19   20 1
    39   20   25 ar
    40   20   21 ar
    41   21   22 ar
    42   21   45 1
    43   22   23 ar
    44   22   28 1
    45   23   24 ar
    46   23   27 1
    47   24   25 ar
    48   24   46 1
    49   25   26 1
    50   26   47 1
    51   27   48 1
@<TRIPOS>MOLECULE
CHEMBL251974__1
   49    52     0     0     0
SMALL
USER_CHARGES

@<TRIPOS>ATOM
      1 C1         -0.0167    1.3781    0.0096 C.ar      1 <0>        -0.0843
      2 C2          1.1709    2.0855    0.0021 C.ar      1 <0>        -0.1134
      3 C3          2.3773    1.4107   -0.0130 C.ar      1 <0>        -0.0962
      4 C4          2.3960    0.0285   -0.0201 C.ar      1 <0>        -0.1598
      5 C5          1.2084   -0.6789   -0.0117 C.ar      1 <0>        -0.0933
      6 C6          0.0021   -0.0041    0.0020 C.ar      1 <0>        -0.1127
      7 C7          3.7112   -0.7071   -0.0376 C.3       1 <0>         0.0448
      8 N1          4.1530   -0.9531    1.3416 N.4       1 <0>        -0.3789
      9 C8          4.4226    0.3297    2.0034 C.3       1 <0>        -0.0269
     10 C9          4.7726    0.0808    3.4743 C.3       1 <0>         0.1307
     11 N2          5.8863   -0.8785    3.5328 N.pl3     1 <0>        -0.6369
     12 C10         5.7681   -2.1258    2.7619 C.3       1 <0>         0.1218
     13 C11         5.3712   -1.7728    1.3247 C.3       1 <0>        -0.0239
     14 C12         7.0312   -0.6106    4.3030 C.2       1 <0>         0.0365
     15 C13         7.2245   -0.9570    5.6451 C.2       1 <0>         0.0518
     16 N3          8.4090   -0.5440    6.0185 N.2       1 <0>        -0.2639
     17 H1          9.9159    0.4847    4.9357 H         1 <0>         0.4474
     18 N4          9.0314    0.0866    4.9342 N.pl3     1 <0>        -0.4596
     19 C14         8.1720    0.0368    3.8713 C.2       1 <0>         0.1220
     20 C15         8.4171    0.5761    2.5173 C.ar      1 <0>        -0.0606
     21 C16         9.4202    0.0284    1.7165 C.ar      1 <0>        -0.0614
     22 C17         9.6462    0.5345    0.4530 C.ar      1 <0>        -0.0734
     23 C18         8.8772    1.5889   -0.0250 C.ar      1 <0>         0.1523
     24 C19         7.8783    2.1387    0.7647 C.ar      1 <0>        -0.1669
     25 C20         7.6398    1.6345    2.0314 C.ar      1 <0>         0.1526
     26 O1          6.6576    2.1689    2.8036 O.3       1 <0>        -0.4922
     27 O2          9.1051    2.0832   -1.2705 O.3       1 <0>        -0.4789
     28 Cl1        10.8947   -0.1472   -0.5421 Cl        1 <0>        -0.0315
     29 H2         -0.9591    1.9053    0.0259 H         1 <0>         0.1355
     30 H3          1.1563    3.1654    0.0076 H         1 <0>         0.1355
     31 H4          3.3051    1.9634   -0.0196 H         1 <0>         0.1296
     32 H5          1.2231   -1.7588   -0.0176 H         1 <0>         0.1309
     33 H6         -0.9258   -0.5567    0.0082 H         1 <0>         0.1359
     34 H7          3.5884   -1.6586   -0.5549 H         1 <0>         0.1355
     35 H8          4.4573   -0.1052   -0.5563 H         1 <0>         0.1304
     36 H9          5.2588    0.8248    1.5096 H         1 <0>         0.1313
     37 H10         3.5376    0.9631    1.9426 H         1 <0>         0.1332
     38 H11         5.0715    1.0182    3.9433 H         1 <0>         0.1220
     39 H12         3.9065   -0.3314    3.9922 H         1 <0>         0.0714
     40 H13         6.7253   -2.6473    2.7599 H         1 <0>         0.1129
     41 H14         5.0026   -2.7608    3.2078 H         1 <0>         0.0794
     42 H15         5.1852   -2.6886    0.7636 H         1 <0>         0.1351
     43 H16         6.1786   -1.2141    0.8514 H         1 <0>         0.1246
     44 H17         6.5140   -1.4784    6.2693 H         1 <0>         0.1877
     45 H18        10.0195   -0.7908    2.0857 H         1 <0>         0.1465
     46 H19         7.2831    2.9580    0.3891 H         1 <0>         0.1519
     47 H20         6.9512    2.9018    3.3620 H         1 <0>         0.4042
     48 H21         8.5902    1.6509   -1.9655 H         1 <0>         0.4009
     49 H22         3.4272   -1.4419    1.8439 H         1 <0>         0.4205
@<TRIPOS>BOND
     1    1    6 ar
     2    1    2 ar
     3    1   29 1
     4    2    3 ar
     5    2   30 1
     6    3    4 ar
     7    3   31 1
     8    4    5 ar
     9    4    7 1
    10    5    6 ar
    11    5   32 1
    12    6   33 1
    13    7    8 1
    14    7   34 1
    15    7   35 1
    16    8   13 1
    17    8    9 1
    18    8   49 1
    19    9   10 1
    20    9   36 1
    21    9   37 1
    22   10   11 1
    23   10   38 1
    24   10   39 1
    25   11   12 1
    26   11   14 1
    27   12   13 1
    28   12   40 1
    29   12   41 1
    30   13   42 1
    31   13   43 1
    32   14   15 1
    33   14   19 2
    34   15   16 2
    35   15   44 1
    36   16   18 1
    37   17   18 1
    38   18   19 1
    39   19   20 1
    40   20   25 ar
    41   20   21 ar
    42   21   22 ar
    43   21   45 1
    44   22   23 ar
    45   22   28 1
    46   23   24 ar
    47   23   27 1
    48   24   25 ar
    49   24   46 1
    50   25   26 1
    51   26   47 1
    52   27   48 1
@<TRIPOS>MOLECULE
CHEMBL251974__2
   49    52     0     0     0
SMALL
USER_CHARGES

@<TRIPOS>ATOM
      1 C1         -0.0233    1.4807    0.0581 C.ar      1 <0>        -0.0836
      2 C2          1.1705    2.1778    0.0497 C.ar      1 <0>        -0.1134
      3 C3          2.3708    1.4926    0.0247 C.ar      1 <0>        -0.0978
      4 C4          2.3774    0.1103    0.0085 C.ar      1 <0>        -0.1620
      5 C5          1.1837   -0.5867    0.0177 C.ar      1 <0>        -0.0929
      6 C6         -0.0167    0.0985    0.0413 C.ar      1 <0>        -0.1123
      7 C7          3.6859   -0.6366   -0.0198 C.3       1 <0>         0.0449
      8 N1          4.1318   -0.8955    1.3557 N.4       1 <0>        -0.3803
      9 C8          4.4156    0.3804    2.0246 C.3       1 <0>        -0.0277
     10 C9          4.7700    0.1189    3.4922 C.3       1 <0>         0.1167
     11 N2          5.8756   -0.8505    3.5393 N.pl3     1 <0>        -0.6421
     12 C10         5.7430   -2.0916    2.7608 C.3       1 <0>         0.1142
     13 C11         5.3426   -1.7257    1.3278 C.3       1 <0>        -0.0225
     14 C12         7.0271   -0.5975    4.3066 C.2       1 <0>         0.0107
     15 C13         8.1810   -0.0472    3.8573 C.2       1 <0>         0.0660
     16 N3          9.0427    0.0266    4.9076 N.pl3     1 <0>        -0.4654
     17 H1          9.9461    0.3787    4.8795 H         1 <0>         0.4516
     18 N4          8.3978   -0.4945    6.0364 N.2       1 <0>        -0.2396
     19 C14         7.1848   -0.8661    5.6838 C.2       1 <0>         0.1145
     20 C15         6.1635   -1.4653    6.5768 C.ar      1 <0>        -0.0474
     21 C16         4.9612   -1.9319    6.0490 C.ar      1 <0>        -0.0683
     22 C17         4.0125   -2.4889    6.8822 C.ar      1 <0>        -0.0817
     23 C18         4.2528   -2.5855    8.2475 C.ar      1 <0>         0.1521
     24 C19         5.4469   -2.1233    8.7796 C.ar      1 <0>        -0.1632
     25 C20         6.4066   -1.5687    7.9498 C.ar      1 <0>         0.1629
     26 O1          7.5797   -1.1209    8.4693 O.3       1 <0>        -0.4743
     27 O2          3.3146   -3.1342    9.0636 O.3       1 <0>        -0.4835
     28 Cl1         2.5152   -3.0698    6.2232 Cl        1 <0>        -0.0513
     29 H2         -0.9610    2.0160    0.0822 H         1 <0>         0.1358
     30 H3          1.1653    3.2577    0.0624 H         1 <0>         0.1359
     31 H4          3.3034    2.0372    0.0174 H         1 <0>         0.1303
     32 H5          1.1888   -1.6666    0.0047 H         1 <0>         0.1311
     33 H6         -0.9493   -0.4461    0.0482 H         1 <0>         0.1361
     34 H7          3.5525   -1.5836   -0.5428 H         1 <0>         0.1367
     35 H8          4.4350   -0.0378   -0.5380 H         1 <0>         0.1343
     36 H9          5.2538    0.8714    1.5302 H         1 <0>         0.1307
     37 H10         3.5360    1.0220    1.9719 H         1 <0>         0.1370
     38 H11         5.0793    1.0505    3.9660 H         1 <0>         0.1174
     39 H12         3.9028   -0.2892    4.0113 H         1 <0>         0.0783
     40 H13         6.6955   -2.6214    2.7510 H         1 <0>         0.1193
     41 H14         4.9740   -2.7229    3.2061 H         1 <0>         0.0786
     42 H15         5.1461   -2.6361    0.7616 H         1 <0>         0.1374
     43 H16         6.1528   -1.1710    0.8545 H         1 <0>         0.1318
     44 H17         8.3810    0.2749    2.8461 H         1 <0>         0.1793
     45 H18         4.7718   -1.8573    4.9883 H         1 <0>         0.1514
     46 H19         5.6304   -2.1999    9.8412 H         1 <0>         0.1524
     47 H20         7.5600   -0.1938    8.7433 H         1 <0>         0.3983
     48 H21         3.4048   -4.0900    9.1797 H         1 <0>         0.4021
     49 H22         3.4040   -1.3812    1.8581 H         1 <0>         0.4216
@<TRIPOS>BOND
     1    1    6 ar
     2    1    2 ar
     3    1   29 1
     4    2    3 ar
     5    2   30 1
     6    3    4 ar
     7    3   31 1
     8    4    5 ar
     9    4    7 1
    10    5    6 ar
    11    5   32 1
    12    6   33 1
    13    7    8 1
    14    7   34 1
    15    7   35 1
    16    8   13 1
    17    8    9 1
    18    8   49 1
    19    9   10 1
    20    9   36 1
    21    9   37 1
    22   10   11 1
    23   10   38 1
    24   10   39 1
    25   11   12 1
    26   11   14 1
    27   12   13 1
    28   12   40 1
    29   12   41 1
    30   13   42 1
    31   13   43 1
    32   14   19 1
    33   14   15 2
    34   15   16 1
    35   15   44 1
    36   16   17 1
    37   16   18 1
    38   18   19 2
    39   19   20 1
    40   20   25 ar
    41   20   21 ar
    42   21   22 ar
    43   21   45 1
    44   22   23 ar
    45   22   28 1
    46   23   24 ar
    47   23   27 1
    48   24   25 ar
    49   24   46 1
    50   25   26 1
    51   26   47 1
    52   27   48 1
@<TRIPOS>MOLECULE
CHEMBL251974__3
   48    51     0     0     0
SMALL
USER_CHARGES

@<TRIPOS>ATOM
      1 C1         -0.0167    1.3781    0.0096 C.ar      1 <0>        -0.1203
      2 C2          1.1709    2.0855    0.0021 C.ar      1 <0>        -0.1210
      3 C3          2.3773    1.4107   -0.0130 C.ar      1 <0>        -0.1138
      4 C4          2.3960    0.0285   -0.0201 C.ar      1 <0>        -0.0766
      5 C5          1.2084   -0.6789   -0.0117 C.ar      1 <0>        -0.0981
      6 C6          0.0021   -0.0041    0.0020 C.ar      1 <0>        -0.1206
      7 C7          3.7112   -0.7071   -0.0376 C.3       1 <0>         0.0951
      8 N1          4.1530   -0.9531    1.3416 N.3       1 <0>        -0.5290
      9 C8          4.4591    0.3085    2.0292 C.3       1 <0>         0.0414
     10 C9          4.7393    0.0249    3.5089 C.3       1 <0>         0.1607
     11 N2          5.7884   -1.0021    3.5973 N.pl3     1 <0>        -0.6408
     12 C10         5.6163   -2.2411    2.8239 C.3       1 <0>         0.1525
     13 C11         5.3016   -1.8684    1.3712 C.3       1 <0>         0.0431
     14 C12         6.9257   -0.8044    4.3995 C.2       1 <0>         0.0661
     15 C13         7.0596   -1.1600    5.7463 C.2       1 <0>         0.0436
     16 N3          8.2564   -0.8205    6.1529 N.2       1 <0>        -0.2774
     17 H1          9.8538    0.1113    5.1129 H         1 <0>         0.4409
     18 N4          8.9467   -0.2313    5.0866 N.pl3     1 <0>        -0.4692
     19 C14         8.1160   -0.2294    4.0000 C.2       1 <0>         0.1025
     20 C15         8.4318    0.2916    2.6535 C.ar      1 <0>        -0.0497
     21 C16         9.4211   -0.3183    1.8810 C.ar      1 <0>        -0.0633
     22 C17         9.7132    0.1709    0.6245 C.ar      1 <0>        -0.0737
     23 C18         9.0246    1.2701    0.1253 C.ar      1 <0>         0.1457
     24 C19         8.0400    1.8819    0.8868 C.ar      1 <0>        -0.1643
     25 C20         7.7354    1.3953    2.1462 C.ar      1 <0>         0.1671
     26 O1          6.7669    1.9907    2.8907 O.3       1 <0>        -0.4775
     27 O2          9.3174    1.7475   -1.1132 O.3       1 <0>        -0.4837
     28 Cl1        10.9445   -0.5882   -0.3354 Cl        1 <0>        -0.0458
     29 H2         -0.9591    1.9053    0.0259 H         1 <0>         0.1202
     30 H3          1.1563    3.1654    0.0076 H         1 <0>         0.1202
     31 H4          3.3051    1.9634   -0.0196 H         1 <0>         0.1162
     32 H5          1.2231   -1.7588   -0.0176 H         1 <0>         0.1215
     33 H6         -0.9258   -0.5567    0.0082 H         1 <0>         0.1213
     34 H7          3.5884   -1.6586   -0.5549 H         1 <0>         0.0810
     35 H8          4.4573   -0.1052   -0.5563 H         1 <0>         0.0378
     36 H9          5.3371    0.7670    1.5742 H         1 <0>         0.0435
     37 H10         3.6090    0.9852    1.9432 H         1 <0>         0.0782
     38 H11         5.0782    0.9377    3.9989 H         1 <0>         0.0780
     39 H12         3.8310   -0.3371    3.9907 H         1 <0>         0.0485
     40 H13         6.5350   -2.8265    2.8609 H         1 <0>         0.0675
     41 H14         4.7923   -2.8209    3.2398 H         1 <0>         0.0583
     42 H15         5.0625   -2.7704    0.8079 H         1 <0>         0.0768
     43 H16         6.1678   -1.3795    0.9253 H         1 <0>         0.0306
     44 H17         6.3009   -1.6355    6.3502 H         1 <0>         0.1843
     45 H18         9.9580   -1.1724    2.2667 H         1 <0>         0.1425
     46 H19         7.5074    2.7359    0.4950 H         1 <0>         0.1484
     47 H20         7.0896    2.7048    3.4573 H         1 <0>         0.3931
     48 H21         8.7964    1.3468   -1.8225 H         1 <0>         0.3985
@<TRIPOS>BOND
     1    1    6 ar
     2    1    2 ar
     3    1   29 1
     4    2    3 ar
     5    2   30 1
     6    3    4 ar
     7    3   31 1
     8    4    5 ar
     9    4    7 1
    10    5    6 ar
    11    5   32 1
    12    6   33 1
    13    7    8 1
    14    7   34 1
    15    7   35 1
    16    8   13 1
    17    8    9 1
    18    9   10 1
    19    9   36 1
    20    9   37 1
    21   10   11 1
    22   10   38 1
    23   10   39 1
    24   11   12 1
    25   11   14 1
    26   12   13 1
    27   12   40 1
    28   12   41 1
    29   13   42 1
    30   13   43 1
    31   14   15 1
    32   14   19 2
    33   15   16 2
    34   15   44 1
    35   16   18 1
    36   17   18 1
    37   18   19 1
    38   19   20 1
    39   20   25 ar
    40   20   21 ar
    41   21   22 ar
    42   21   45 1
    43   22   23 ar
    44   22   28 1
    45   23   24 ar
    46   23   27 1
    47   24   25 ar
    48   24   46 1
    49   25   26 1
    50   26   47 1
    51   27   48 1
@<TRIPOS>MOLECULE
CHEMBL378338
   47    51     0     0     0
SMALL
USER_CHARGES

@<TRIPOS>ATOM
      1 C1         -0.0167    1.3827    0.0096 C.ar      1 <0>        -0.1008
      2 C2          1.1420    2.1150    0.0025 C.ar      1 <0>        -0.0479
      3 C3          2.4024    1.4739   -0.0129 C.ar      1 <0>         0.0922
      4 C4          2.3838    0.0606   -0.0203 C.ar      1 <0>        -0.1475
      5 C5          1.2184   -0.6652   -0.0128 C.ar      1 <0>         0.0126
      6 C6          0.0021   -0.0041    0.0020 C.ar      1 <0>        -0.0791
      7 Cl1         1.2696   -2.4004   -0.0225 Cl        1 <0>        -0.0492
      8 S1          4.1144   -0.3409   -0.0383 S.3       1 <0>         0.0907
      9 C7          4.7340    1.3355   -0.0350 C.2       1 <0>         0.0826
     10 N1          3.6271    2.0432   -0.0211 N.2       1 <0>        -0.4426
     11 S2          6.4043    1.8964   -0.0469 S.3       1 <0>         0.2805
     12 C8          6.2642    3.6528   -0.0365 C.2       1 <0>         0.2008
     13 N2          5.1365    4.3189   -0.0174 N.2       1 <0>        -0.3963
     14 C9          5.3992    5.6493   -0.0147 C.ar      1 <0>        -0.1073
     15 C10         4.6075    6.8096    0.0016 C.ar      1 <0>         0.5167
     16 N3          5.2153    7.9915   -0.0017 N.ar      1 <0>        -0.5918
     17 C11         6.5326    8.0827   -0.0199 C.ar      1 <0>         0.3718
     18 N4          7.3137    7.0228   -0.0356 N.ar      1 <0>        -0.5600
     19 C12         6.7954    5.7994   -0.0337 C.ar      1 <0>         0.3193
     20 N5          7.3172    4.5267   -0.0413 N.pl3     1 <0>        -0.4488
     21 C13         8.7385    4.1721   -0.0557 C.3       1 <0>         0.1103
     22 C14         9.2207    4.0568   -1.5031 C.3       1 <0>         0.0397
     23 N6         10.6460    3.7012   -1.5176 N.3       1 <0>        -0.5315
     24 C15        11.4663    4.7906   -0.9683 C.3       1 <0>         0.0109
     25 C16        12.9341    4.3558   -0.9468 C.3       1 <0>         0.0638
     26 O1         13.3368    3.9886   -2.2691 O.3       1 <0>        -0.3839
     27 C17        12.5592    2.9298   -2.8345 C.3       1 <0>         0.0638
     28 C18        11.0876    3.3501   -2.8751 C.3       1 <0>         0.0183
     29 N7          3.2248    6.7239    0.0202 N.pl3     1 <0>        -0.8140
     30 H1         -0.9661    1.8974    0.0260 H         1 <0>         0.1472
     31 H2          1.0918    3.1938    0.0084 H         1 <0>         0.1406
     32 H3         -0.9224   -0.5624    0.0084 H         1 <0>         0.1516
     33 H4          6.9860    9.0629   -0.0223 H         1 <0>         0.2073
     34 H5          9.3110    4.9448    0.4575 H         1 <0>         0.1066
     35 H6          8.8801    3.2178    0.4516 H         1 <0>         0.1065
     36 H7          8.6483    3.2841   -2.0163 H         1 <0>         0.0860
     37 H8          9.0792    5.0111   -2.0104 H         1 <0>         0.0492
     38 H9         11.3586    5.6776   -1.5925 H         1 <0>         0.0492
     39 H10        11.1388    5.0168    0.0464 H         1 <0>         0.0886
     40 H11        13.5530    5.1808   -0.5938 H         1 <0>         0.1007
     41 H12        13.0509    3.5013   -0.2803 H         1 <0>         0.0620
     42 H13        12.9069    2.7234   -3.8467 H         1 <0>         0.1008
     43 H14        12.6651    2.0338   -2.2228 H         1 <0>         0.0627
     44 H15        10.4837    2.5248   -3.2523 H         1 <0>         0.0900
     45 H16        10.9738    4.2141   -3.5298 H         1 <0>         0.0464
     46 H17         2.7927    5.8554    0.0221 H         1 <0>         0.4198
     47 H18         2.6889    7.5323    0.0314 H         1 <0>         0.4115
@<TRIPOS>BOND
     1    1    6 ar
     2    1    2 ar
     3    1   30 1
     4    2    3 ar
     5    2   31 1
     6    3   10 1
     7    3    4 ar
     8    4    5 ar
     9    4    8 1
    10    5    6 ar
    11    5    7 1
    12    6   32 1
    13    8    9 1
    14    9   10 2
    15    9   11 1
    16   11   12 1
    17   12   20 1
    18   12   13 2
    19   13   14 1
    20   14   19 ar
    21   14   15 ar
    22   15   16 ar
    23   15   29 1
    24   16   17 ar
    25   17   18 ar
    26   17   33 1
    27   18   19 ar
    28   19   20 1
    29   20   21 1
    30   21   22 1
    31   21   34 1
    32   21   35 1
    33   22   23 1
    34   22   36 1
    35   22   37 1
    36   23   28 1
    37   23   24 1
    38   24   25 1
    39   24   38 1
    40   24   39 1
    41   25   26 1
    42   25   40 1
    43   25   41 1
    44   26   27 1
    45   27   28 1
    46   27   42 1
    47   27   43 1
    48   28   44 1
    49   28   45 1
    50   29   46 1
    51   29   47 1
@<TRIPOS>MOLECULE
CHEMBL378338__1
   48    52     0     0     0
SMALL
USER_CHARGES

@<TRIPOS>ATOM
      1 C1         -0.0167    1.3827    0.0096 C.ar      1 <0>        -0.0989
      2 C2          1.1420    2.1150    0.0025 C.ar      1 <0>        -0.0431
      3 C3          2.4024    1.4739   -0.0129 C.ar      1 <0>         0.0830
      4 C4          2.3838    0.0606   -0.0203 C.ar      1 <0>        -0.1403
      5 C5          1.2184   -0.6652   -0.0128 C.ar      1 <0>         0.0085
      6 C6          0.0021   -0.0041    0.0020 C.ar      1 <0>        -0.0682
      7 Cl1         1.2696   -2.4004   -0.0225 Cl        1 <0>        -0.0421
      8 S1          4.1144   -0.3409   -0.0383 S.3       1 <0>         0.1024
      9 C7          4.7340    1.3355   -0.0350 C.2       1 <0>         0.0686
     10 N1          3.6271    2.0432   -0.0211 N.2       1 <0>        -0.4332
     11 S2          6.4043    1.8964   -0.0469 S.3       1 <0>         0.2554
     12 C8          6.2642    3.6528   -0.0365 C.2       1 <0>         0.1966
     13 N2          5.1365    4.3189   -0.0174 N.2       1 <0>        -0.3783
     14 C9          5.3992    5.6493   -0.0147 C.ar      1 <0>        -0.1079
     15 C10         4.6075    6.8096    0.0016 C.ar      1 <0>         0.5232
     16 N3          5.2153    7.9915   -0.0017 N.ar      1 <0>        -0.5845
     17 C11         6.5326    8.0827   -0.0199 C.ar      1 <0>         0.3862
     18 N4          7.3137    7.0228   -0.0356 N.ar      1 <0>        -0.5715
     19 C12         6.7954    5.7994   -0.0337 C.ar      1 <0>         0.3216
     20 N5          7.3172    4.5267   -0.0413 N.pl3     1 <0>        -0.4597
     21 C13         8.7385    4.1721   -0.0557 C.3       1 <0>         0.0908
     22 C14         9.2207    4.0568   -1.5031 C.3       1 <0>        -0.0314
     23 N6         10.6460    3.7012   -1.5176 N.4       1 <0>        -0.3811
     24 C15        11.4305    4.7979   -0.9338 C.3       1 <0>        -0.0516
     25 C16        12.9150    4.4250   -0.9498 C.3       1 <0>         0.0377
     26 O1         13.3174    4.1490   -2.2943 O.3       1 <0>        -0.3549
     27 C17        12.5652    3.1028   -2.9151 C.3       1 <0>         0.0369
     28 C18        11.0801    3.4733   -2.9028 C.3       1 <0>        -0.0433
     29 N7          3.2248    6.7239    0.0202 N.pl3     1 <0>        -0.8051
     30 H1         -0.9661    1.8974    0.0260 H         1 <0>         0.1511
     31 H2          1.0918    3.1938    0.0084 H         1 <0>         0.1419
     32 H3         -0.9224   -0.5624    0.0084 H         1 <0>         0.1559
     33 H4          6.9860    9.0629   -0.0223 H         1 <0>         0.2127
     34 H5          9.3110    4.9448    0.4575 H         1 <0>         0.1262
     35 H6          8.8801    3.2178    0.4516 H         1 <0>         0.1169
     36 H7          8.6483    3.2841   -2.0163 H         1 <0>         0.1420
     37 H8          9.0792    5.0111   -2.0104 H         1 <0>         0.1434
     38 H9         11.2773    5.7055   -1.5176 H         1 <0>         0.1446
     39 H10        11.1093    4.9678    0.0939 H         1 <0>         0.1433
     40 H11        13.5030    5.2544   -0.5568 H         1 <0>         0.1443
     41 H12        13.0748    3.5404   -0.3332 H         1 <0>         0.0832
     42 H13        12.9000    2.9753   -3.9445 H         1 <0>         0.1441
     43 H14        12.7130    2.1730   -2.3658 H         1 <0>         0.0835
     44 H15        10.4987    2.6598   -3.3368 H         1 <0>         0.1456
     45 H16        10.9270    4.3814   -3.4859 H         1 <0>         0.1412
     46 H17         2.7927    5.8554    0.0221 H         1 <0>         0.4228
     47 H18         2.6889    7.5323    0.0314 H         1 <0>         0.4170
     48 H19        10.7886    2.8609   -0.9777 H         1 <0>         0.4247
@<TRIPOS>BOND
     1    1    6 ar
     2    1    2 ar
     3    1   30 1
     4    2    3 ar
     5    2   31 1
     6    3   10 1
     7    3    4 ar
     8    4    5 ar
     9    4    8 1
    10    5    6 ar
    11    5    7 1
    12    6   32 1
    13    8    9 1
    14    9   10 2
    15    9   11 1
    16   11   12 1
    17   12   20 1
    18   12   13 2
    19   13   14 1
    20   14   19 ar
    21   14   15 ar
    22   15   16 ar
    23   15   29 1
    24   16   17 ar
    25   17   18 ar
    26   17   33 1
    27   18   19 ar
    28   19   20 1
    29   20   21 1
    30   21   22 1
    31   21   34 1
    32   21   35 1
    33   22   23 1
    34   22   36 1
    35   22   37 1
    36   23   28 1
    37   23   24 1
    38   23   48 1
    39   24   25 1
    40   24   38 1
    41   24   39 1
    42   25   26 1
    43   25   40 1
    44   25   41 1
    45   26   27 1
    46   27   28 1
    47   27   42 1
    48   27   43 1
    49   28   44 1
    50   28   45 1
    51   29   46 1
    52   29   47 1
@<TRIPOS>MOLECULE
CHEMBL379641
   41    44     0     0     0
SMALL
USER_CHARGES

@<TRIPOS>ATOM
      1 C1         -0.0167    1.3827    0.0096 C.ar      1 <0>        -0.1008
      2 C2          1.1420    2.1150    0.0025 C.ar      1 <0>        -0.0478
      3 C3          2.4024    1.4739   -0.0129 C.ar      1 <0>         0.0923
      4 C4          2.3838    0.0606   -0.0203 C.ar      1 <0>        -0.1473
      5 C5          1.2184   -0.6652   -0.0128 C.ar      1 <0>         0.0125
      6 C6          0.0021   -0.0041    0.0020 C.ar      1 <0>        -0.0790
      7 Cl1         1.2696   -2.4004   -0.0225 Cl        1 <0>        -0.0492
      8 S1          4.1144   -0.3409   -0.0383 S.3       1 <0>         0.0900
      9 C7          4.7340    1.3355   -0.0350 C.2       1 <0>         0.0836
     10 N1          3.6271    2.0432   -0.0211 N.2       1 <0>        -0.4423
     11 S2          6.4043    1.8964   -0.0469 S.3       1 <0>         0.2766
     12 C8          6.2642    3.6528   -0.0365 C.2       1 <0>         0.1997
     13 N2          5.1365    4.3189   -0.0174 N.2       1 <0>        -0.3974
     14 C9          5.3992    5.6493   -0.0147 C.ar      1 <0>        -0.1082
     15 C10         4.6075    6.8096    0.0016 C.ar      1 <0>         0.5164
     16 N3          5.2153    7.9915   -0.0017 N.ar      1 <0>        -0.5923
     17 C11         6.5326    8.0827   -0.0199 C.ar      1 <0>         0.3713
     18 N4          7.3137    7.0228   -0.0356 N.ar      1 <0>        -0.5588
     19 C12         6.7954    5.7994   -0.0337 C.ar      1 <0>         0.3197
     20 N5          7.3172    4.5267   -0.0413 N.pl3     1 <0>        -0.4488
     21 C13         8.7385    4.1721   -0.0557 C.3       1 <0>         0.1077
     22 C14         9.2207    4.0568   -1.5031 C.3       1 <0>        -0.1351
     23 C15        10.7052    3.6865   -1.5182 C.3       1 <0>        -0.1167
     24 C16        11.1874    3.5712   -2.9656 C.3       1 <0>         0.0761
     25 O1         12.5738    3.2253   -2.9797 O.3       1 <0>        -0.5749
     26 N6          3.2248    6.7239    0.0202 N.pl3     1 <0>        -0.8145
     27 H1         -0.9661    1.8974    0.0260 H         1 <0>         0.1472
     28 H2          1.0918    3.1938    0.0084 H         1 <0>         0.1407
     29 H3         -0.9224   -0.5624    0.0084 H         1 <0>         0.1516
     30 H4          6.9860    9.0629   -0.0223 H         1 <0>         0.2074
     31 H5          9.3110    4.9448    0.4575 H         1 <0>         0.1087
     32 H6          8.8801    3.2178    0.4516 H         1 <0>         0.0984
     33 H7          8.6483    3.2841   -2.0163 H         1 <0>         0.0747
     34 H8          9.0792    5.0111   -2.0104 H         1 <0>         0.0775
     35 H9         11.2776    4.4591   -1.0050 H         1 <0>         0.0770
     36 H10        10.8467    2.7321   -1.0109 H         1 <0>         0.0764
     37 H11        10.6149    2.7985   -3.4788 H         1 <0>         0.0472
     38 H12        11.0458    4.5255   -3.4729 H         1 <0>         0.0467
     39 H13        12.9477    3.1350   -3.8669 H         1 <0>         0.3830
     40 H14         2.7927    5.8554    0.0221 H         1 <0>         0.4196
     41 H15         2.6889    7.5323    0.0314 H         1 <0>         0.4113
@<TRIPOS>BOND
     1    1    6 ar
     2    1    2 ar
     3    1   27 1
     4    2    3 ar
     5    2   28 1
     6    3   10 1
     7    3    4 ar
     8    4    5 ar
     9    4    8 1
    10    5    6 ar
    11    5    7 1
    12    6   29 1
    13    8    9 1
    14    9   10 2
    15    9   11 1
    16   11   12 1
    17   12   20 1
    18   12   13 2
    19   13   14 1
    20   14   19 ar
    21   14   15 ar
    22   15   16 ar
    23   15   26 1
    24   16   17 ar
    25   17   18 ar
    26   17   30 1
    27   18   19 ar
    28   19   20 1
    29   20   21 1
    30   21   22 1
    31   21   31 1
    32   21   32 1
    33   22   23 1
    34   22   33 1
    35   22   34 1
    36   23   24 1
    37   23   35 1
    38   23   36 1
    39   24   25 1
    40   24   37 1
    41   24   38 1
    42   25   39 1
    43   26   40 1
    44   26   41 1
@<TRIPOS>MOLECULE
CHEMBL273986
   45    47     0     0     0
SMALL
USER_CHARGES

@<TRIPOS>ATOM
      1 C1         -2.8877    1.8375   -1.1343 C.3       1 <0>         0.0263
      2 O1         -2.9908    0.4474   -1.4490 O.3       1 <0>        -0.3142
      3 C2         -2.6918   -0.4338   -0.4575 C.ar      1 <0>         0.0832
      4 C3         -2.3130    0.0322    0.7930 C.ar      1 <0>        -0.1290
      5 C4         -2.0082   -0.8609    1.8035 C.ar      1 <0>        -0.1783
      6 C5         -2.0807   -2.2240    1.5701 C.ar      1 <0>         0.1600
      7 C6         -2.4612   -2.6955    0.3155 C.ar      1 <0>        -0.1373
      8 C7         -2.7712   -1.7971   -0.6955 C.ar      1 <0>        -0.0474
      9 S1         -2.5539   -4.4292    0.0149 S.3       1 <0>         0.1316
     10 C8         -0.8707   -4.9242   -0.1476 C.2       1 <0>         0.2402
     11 N1          0.1581   -4.1125   -0.1422 N.2       1 <0>        -0.4511
     12 C9          1.2993   -4.8308   -0.2879 C.ar      1 <0>        -0.0989
     13 C10         2.6648   -4.5078   -0.3517 C.ar      1 <0>         0.5068
     14 N2          3.5428   -5.4937   -0.5048 N.ar      1 <0>        -0.5911
     15 C11         3.1496   -6.7511   -0.5956 C.ar      1 <0>         0.3614
     16 N3          1.8811   -7.1000   -0.5408 N.ar      1 <0>        -0.5557
     17 C12         0.9322   -6.1825   -0.3893 C.ar      1 <0>         0.3097
     18 N4         -0.4398   -6.2153   -0.2927 N.pl3     1 <0>        -0.4514
     19 C13        -1.2843   -7.4114   -0.3399 C.3       1 <0>         0.1094
     20 C14        -1.6782   -7.7006   -1.7898 C.3       1 <0>        -0.1319
     21 C15        -2.5602   -8.9498   -1.8392 C.3       1 <0>        -0.0059
     22 C16        -2.9392   -9.2281   -3.2341 C.1       1 <0>        -0.1925
     23 C17        -3.2414   -9.4500   -4.3466 C.1       1 <0>        -0.1996
     24 N5          3.0868   -3.1913   -0.2578 N.pl3     1 <0>        -0.8195
     25 O2         -1.7801   -3.1021    2.5651 O.3       1 <0>        -0.3000
     26 C18        -1.3972   -2.5482    3.8255 C.3       1 <0>         0.0253
     27 H1         -3.1529    2.4291   -2.0105 H         1 <0>         0.1028
     28 H2         -3.5669    2.0760   -0.3157 H         1 <0>         0.0558
     29 H3         -1.8648    2.0677   -0.8365 H         1 <0>         0.0554
     30 H4         -2.2557    1.0948    0.9775 H         1 <0>         0.1373
     31 H5         -1.7129   -0.4951    2.7758 H         1 <0>         0.1382
     32 H6         -3.0701   -2.1596   -1.6680 H         1 <0>         0.1485
     33 H7          3.8960   -7.5217   -0.7197 H         1 <0>         0.2051
     34 H8         -0.7336   -8.2612    0.0634 H         1 <0>         0.1051
     35 H9         -2.1828   -7.2455    0.2545 H         1 <0>         0.1010
     36 H10        -2.2289   -6.8508   -2.1931 H         1 <0>         0.0775
     37 H11        -0.7797   -7.8665   -2.3842 H         1 <0>         0.0770
     38 H12        -2.0095   -9.7996   -1.4358 H         1 <0>         0.0919
     39 H13        -3.4587   -8.7839   -1.2448 H         1 <0>         0.0923
     40 H14        -3.5117   -9.6485   -5.3416 H         1 <0>         0.2176
     41 H15         2.4364   -2.4803   -0.1466 H         1 <0>         0.4171
     42 H16         4.0325   -2.9807   -0.3033 H         1 <0>         0.4100
     43 H17        -0.5054   -1.9348    3.6970 H         1 <0>         0.0563
     44 H18        -2.2088   -1.9326    4.2134 H         1 <0>         0.0587
     45 H19        -1.1854   -3.3546    4.5275 H         1 <0>         0.1027
@<TRIPOS>BOND
     1    1    2 1
     2    1   27 1
     3    1   28 1
     4    1   29 1
     5    2    3 1
     6    3    8 ar
     7    3    4 ar
     8    4    5 ar
     9    4   30 1
    10    5    6 ar
    11    5   31 1
    12    6    7 ar
    13    6   25 1
    14    7    8 ar
    15    7    9 1
    16    8   32 1
    17    9   10 1
    18   10   18 1
    19   10   11 2
    20   11   12 1
    21   12   17 ar
    22   12   13 ar
    23   13   14 ar
    24   13   24 1
    25   14   15 ar
    26   15   16 ar
    27   15   33 1
    28   16   17 ar
    29   17   18 1
    30   18   19 1
    31   19   20 1
    32   19   34 1
    33   19   35 1
    34   20   21 1
    35   20   36 1
    36   20   37 1
    37   21   22 1
    38   21   38 1
    39   21   39 1
    40   22   23 3
    41   23   40 1
    42   24   41 1
    43   24   42 1
    44   25   26 1
    45   26   43 1
    46   26   44 1
    47   26   45 1
@<TRIPOS>MOLECULE
CHEMBL192647
   49    51     0     0     0
SMALL
USER_CHARGES

@<TRIPOS>ATOM
      1 C1         -1.8664   -2.1074    3.7116 C.3       1 <0>         0.0191
      2 O1         -1.2192   -2.3576    2.4624 O.3       1 <0>        -0.2962
      3 C2          0.0121   -1.8082    2.2839 C.ar      1 <0>         0.1206
      4 C3          0.5856   -1.0500    3.2927 C.ar      1 <0>        -0.1276
      5 C4          1.8425   -0.4889    3.1110 C.ar      1 <0>        -0.0913
      6 C5          2.5262   -0.6867    1.9177 C.ar      1 <0>        -0.0211
      7 C6          1.9535   -1.4449    0.9082 C.ar      1 <0>         0.1178
      8 C7          0.6977   -2.0117    1.0924 C.ar      1 <0>         0.0938
      9 O2          0.1371   -2.7615    0.1036 O.3       1 <0>        -0.3155
     10 C8         -0.6678   -2.0729   -0.8556 C.3       1 <0>         0.0375
     11 O3          2.6226   -1.6387   -0.2601 O.3       1 <0>        -0.3164
     12 C9          3.4798   -2.7796   -0.3353 C.3       1 <0>         0.0350
     13 Cl1         4.0973    0.0159    1.6906 Cl        1 <0>        -0.0254
     14 S1          2.5707    0.4747    4.3939 S.3       1 <0>         0.1307
     15 C10         2.3815    2.1362    3.8388 C.2       1 <0>         0.2329
     16 N1          1.7277    2.5024    2.7636 N.2       1 <0>        -0.4448
     17 C11         1.7842    3.8519    2.6399 C.ar      1 <0>        -0.1000
     18 C12         1.2808    4.7775    1.7110 C.ar      1 <0>         0.5103
     19 N2          1.5334    6.0682    1.9019 N.ar      1 <0>        -0.5907
     20 C13         2.2406    6.4802    2.9383 C.ar      1 <0>         0.3657
     21 N3          2.7318    5.6488    3.8334 N.ar      1 <0>        -0.5569
     22 C14         2.5302    4.3401    3.7249 C.ar      1 <0>         0.3144
     23 N4          2.8900    3.2400    4.4685 N.pl3     1 <0>        -0.4496
     24 C15         3.6754    3.2481    5.7052 C.3       1 <0>         0.1095
     25 C16         5.1627    3.1317    5.3655 C.3       1 <0>        -0.1325
     26 C17         5.9830    3.1401    6.6570 C.3       1 <0>        -0.0053
     27 C18         7.4139    3.0281    6.3302 C.1       1 <0>        -0.1932
     28 C19         8.5551    2.9388    6.0696 C.1       1 <0>        -0.1985
     29 N5          0.5382    4.3545    0.6203 N.pl3     1 <0>        -0.8173
     30 H1         -2.0031   -1.0338    3.8414 H         1 <0>         0.0603
     31 H2         -2.8380   -2.6013    3.7228 H         1 <0>         0.1086
     32 H3         -1.2517   -2.4962    4.5235 H         1 <0>         0.0618
     33 H4          0.0543   -0.8953    4.2202 H         1 <0>         0.1564
     34 H5         -1.0523   -2.7852   -1.5855 H         1 <0>         0.0994
     35 H6         -1.5012   -1.5867   -0.3485 H         1 <0>         0.0496
     36 H7         -0.0638   -1.3216   -1.3644 H         1 <0>         0.0526
     37 H8          3.9510   -2.8159   -1.3175 H         1 <0>         0.1018
     38 H9          4.2486   -2.7077    0.4341 H         1 <0>         0.0506
     39 H10         2.8937   -3.6853   -0.1797 H         1 <0>         0.0559
     40 H11         2.4230    7.5382    3.0558 H         1 <0>         0.2061
     41 H12         3.4973    4.1795    6.2426 H         1 <0>         0.1067
     42 H13         3.3784    2.4056    6.3298 H         1 <0>         0.0994
     43 H14         5.3408    2.2003    4.8281 H         1 <0>         0.0780
     44 H15         5.4598    3.9741    4.7409 H         1 <0>         0.0776
     45 H16         5.8049    4.0715    7.1945 H         1 <0>         0.0921
     46 H17         5.6859    2.2977    7.2816 H         1 <0>         0.0919
     47 H18         9.5758    2.8589    5.8365 H         1 <0>         0.2176
     48 H19         0.3606    3.4096    0.4915 H         1 <0>         0.4177
     49 H20         0.1959    5.0032   -0.0144 H         1 <0>         0.4110
@<TRIPOS>BOND
     1    1    2 1
     2    1   30 1
     3    1   31 1
     4    1   32 1
     5    2    3 1
     6    3    8 ar
     7    3    4 ar
     8    4    5 ar
     9    4   33 1
    10    5    6 ar
    11    5   14 1
    12    6    7 ar
    13    6   13 1
    14    7    8 ar
    15    7   11 1
    16    8    9 1
    17    9   10 1
    18   10   34 1
    19   10   35 1
    20   10   36 1
    21   11   12 1
    22   12   37 1
    23   12   38 1
    24   12   39 1
    25   14   15 1
    26   15   23 1
    27   15   16 2
    28   16   17 1
    29   17   22 ar
    30   17   18 ar
    31   18   19 ar
    32   18   29 1
    33   19   20 ar
    34   20   21 ar
    35   20   40 1
    36   21   22 ar
    37   22   23 1
    38   23   24 1
    39   24   25 1
    40   24   41 1
    41   24   42 1
    42   25   26 1
    43   25   43 1
    44   25   44 1
    45   26   27 1
    46   26   45 1
    47   26   46 1
    48   27   28 3
    49   28   47 1
    50   29   48 1
    51   29   49 1
@<TRIPOS>MOLECULE
CHEMBL399530
   46    49     0     0     0
SMALL
USER_CHARGES

@<TRIPOS>ATOM
      1 C1         -5.0743    0.1445    2.8553 C.3       1 <0>        -0.1448
      2 C2         -4.6196    0.9852    1.6605 C.3       1 <0>        -0.0807
      3 C3         -3.7325    0.1539    0.7699 C.ar      1 <0>        -0.1136
      4 C4         -4.2475   -0.4141   -0.3769 C.ar      1 <0>        -0.0555
      5 C5         -3.4286   -1.1825   -1.2015 C.ar      1 <0>        -0.0451
      6 C6         -2.0850   -1.3752   -0.8626 C.ar      1 <0>         0.1461
      7 C7         -1.5768   -0.8016    0.2899 C.ar      1 <0>        -0.1750
      8 C8         -2.3976   -0.0334    1.1030 C.ar      1 <0>         0.1340
      9 O1         -1.8949    0.5330    2.2312 O.3       1 <0>        -0.4925
     10 O2         -1.2815   -2.1238   -1.6623 O.3       1 <0>        -0.4882
     11 C9         -3.9795   -1.7945   -2.4342 C.2       1 <0>         0.1461
     12 C10        -5.1975   -2.5127   -2.5376 C.2       1 <0>        -0.1899
     13 C11        -5.3336   -2.9035   -3.8359 C.2       1 <0>         0.1092
     14 N1         -4.2584   -2.4559   -4.5171 N.pl3     1 <0>        -0.4676
     15 H1         -4.0907   -2.5888   -5.4632 H         1 <0>         0.4418
     16 N2         -3.4282   -1.7629   -3.6280 N.2       1 <0>        -0.2747
     17 C12        -6.4809   -3.6948   -4.4089 C.3       1 <0>        -0.0965
     18 C13        -6.1498   -2.7888   -1.4337 C.ar      1 <0>         0.0040
     19 C14        -5.7757   -3.6210   -0.3805 C.ar      1 <0>        -0.0950
     20 C15        -6.6631   -3.8777    0.6443 C.ar      1 <0>        -0.1099
     21 C16        -7.9292   -3.3089    0.6313 C.ar      1 <0>         0.0500
     22 C17        -8.3069   -2.4757   -0.4161 C.ar      1 <0>         0.0523
     23 C18        -7.4176   -2.2123   -1.4450 C.ar      1 <0>        -0.1038
     24 O3         -9.5419   -1.9035   -0.4404 O.3       1 <0>        -0.3074
     25 C19       -10.5351   -2.4791    0.4151 C.3       1 <0>         0.0206
     26 C20        -9.9089   -2.6973    1.7991 C.3       1 <0>         0.0203
     27 O4         -8.7905   -3.5787    1.6509 O.3       1 <0>        -0.3075
     28 H2         -5.7159    0.7458    3.4994 H         1 <0>         0.0596
     29 H3         -5.6285   -0.7237    2.4987 H         1 <0>         0.0560
     30 H4         -4.2023   -0.1874    3.4188 H         1 <0>         0.0519
     31 H5         -5.4916    1.3171    1.0969 H         1 <0>         0.0719
     32 H6         -4.0654    1.8534    2.0170 H         1 <0>         0.0798
     33 H7         -5.2853   -0.2635   -0.6352 H         1 <0>         0.1331
     34 H8         -0.5400   -0.9485    0.5543 H         1 <0>         0.1383
     35 H9         -1.9655   -0.0262    3.0170 H         1 <0>         0.3916
     36 H10        -0.7711   -1.6074   -2.3010 H         1 <0>         0.3947
     37 H11        -7.2551   -3.0115   -4.7580 H         1 <0>         0.0847
     38 H12        -6.1250   -4.2979   -5.2442 H         1 <0>         0.0747
     39 H13        -6.8925   -4.3474   -3.6389 H         1 <0>         0.0889
     40 H14        -4.7914   -4.0653   -0.3666 H         1 <0>         0.1301
     41 H15        -6.3718   -4.5237    1.4593 H         1 <0>         0.1348
     42 H16        -7.7088   -1.5636   -2.2579 H         1 <0>         0.1326
     43 H17       -11.3852   -1.8020    0.4989 H         1 <0>         0.1223
     44 H18       -10.8641   -3.4342    0.0057 H         1 <0>         0.0777
     45 H19        -9.5736   -1.7431    2.2055 H         1 <0>         0.0780
     46 H20       -10.6435   -3.1449    2.4685 H         1 <0>         0.1222
@<TRIPOS>BOND
     1    1    2 1
     2    1   28 1
     3    1   29 1
     4    1   30 1
     5    2    3 1
     6    2   31 1
     7    2   32 1
     8    3    8 ar
     9    3    4 ar
    10    4    5 ar
    11    4   33 1
    12    5    6 ar
    13    5   11 1
    14    6    7 ar
    15    6   10 1
    16    7    8 ar
    17    7   34 1
    18    8    9 1
    19    9   35 1
    20   10   36 1
    21   11   16 2
    22   11   12 1
    23   12   13 2
    24   12   18 1
    25   13   14 1
    26   13   17 1
    27   14   15 1
    28   14   16 1
    29   17   37 1
    30   17   38 1
    31   17   39 1
    32   18   23 ar
    33   18   19 ar
    34   19   20 ar
    35   19   40 1
    36   20   21 ar
    37   20   41 1
    38   21   27 1
    39   21   22 ar
    40   22   23 ar
    41   22   24 1
    42   23   42 1
    43   24   25 1
    44   25   26 1
    45   25   43 1
    46   25   44 1
    47   26   27 1
    48   26   45 1
    49   26   46 1
@<TRIPOS>MOLECULE
CHEMBL399530__1
   46    49     0     0     0
SMALL
USER_CHARGES

@<TRIPOS>ATOM
      1 C1         -0.7941   -2.9541    2.2397 C.3       1 <0>        -0.1466
      2 C2         -2.2042   -2.3618    2.2016 C.3       1 <0>        -0.0826
      3 C3         -2.3653   -1.5279    0.9567 C.ar      1 <0>        -0.1131
      4 C4         -3.0209   -2.0482   -0.1389 C.ar      1 <0>        -0.0647
      5 C5         -3.1708   -1.2770   -1.2925 C.ar      1 <0>        -0.0753
      6 C6         -2.6532    0.0248   -1.3311 C.ar      1 <0>         0.1558
      7 C7         -1.9971    0.5368   -0.2258 C.ar      1 <0>        -0.1705
      8 C8         -1.8579   -0.2354    0.9187 C.ar      1 <0>         0.1411
      9 O1         -1.2183    0.2728    2.0043 O.3       1 <0>        -0.4910
     10 O2         -2.7947    0.7813   -2.4503 O.3       1 <0>        -0.4874
     11 C9         -3.8718   -1.8308   -2.4681 C.2       1 <0>         0.1568
     12 C10        -5.0799   -1.3906   -2.9928 C.2       1 <0>        -0.1818
     13 C11        -5.3716   -2.1995   -4.1054 C.2       1 <0>         0.0985
     14 N1         -4.4095   -3.0714   -4.2493 N.2       1 <0>        -0.2848
     15 H1         -2.6360   -3.3765   -3.1285 H         1 <0>         0.4414
     16 N2         -3.4531   -2.8675   -3.2480 N.pl3     1 <0>        -0.4630
     17 C12        -6.5901   -2.0807   -4.9842 C.3       1 <0>        -0.0769
     18 C13        -5.9084   -0.2749   -2.4758 C.ar      1 <0>         0.0016
     19 C14        -6.5017   -0.3699   -1.2178 C.ar      1 <0>        -0.0992
     20 C15        -7.2733    0.6689   -0.7394 C.ar      1 <0>        -0.1089
     21 C16        -7.4613    1.8108   -1.5060 C.ar      1 <0>         0.0495
     22 C17        -6.8699    1.9119   -2.7608 C.ar      1 <0>         0.0532
     23 C18        -6.0911    0.8734   -3.2436 C.ar      1 <0>        -0.1084
     24 O3         -7.0378    3.0280   -3.5220 O.3       1 <0>        -0.3062
     25 C19        -8.1206    3.8939   -3.1650 C.3       1 <0>         0.0205
     26 C20        -8.0892    4.1006   -1.6447 C.3       1 <0>         0.0198
     27 O4         -8.2299    2.8223   -1.0157 O.3       1 <0>        -0.3071
     28 H2         -0.6775   -3.5573    3.1401 H         1 <0>         0.0625
     29 H3         -0.6389   -3.5798    1.3607 H         1 <0>         0.0552
     30 H4         -0.0611   -2.1474    2.2454 H         1 <0>         0.0523
     31 H5         -2.9372   -3.1685    2.1958 H         1 <0>         0.0740
     32 H6         -2.3594   -1.7362    3.0806 H         1 <0>         0.0820
     33 H7         -3.4178   -3.0520   -0.1046 H         1 <0>         0.1342
     34 H8         -1.5967    1.5395   -0.2524 H         1 <0>         0.1410
     35 H9         -0.2652    0.1094    2.0116 H         1 <0>         0.3936
     36 H10        -3.6016    1.3141   -2.4655 H         1 <0>         0.3933
     37 H11        -6.3803   -1.3954   -5.8055 H         1 <0>         0.0800
     38 H12        -6.8456   -3.0614   -5.3856 H         1 <0>         0.0758
     39 H13        -7.4256   -1.6994   -4.3972 H         1 <0>         0.0791
     40 H14        -6.3577   -1.2565   -0.6182 H         1 <0>         0.1302
     41 H15        -7.7330    0.5932    0.2349 H         1 <0>         0.1358
     42 H16        -5.6294    0.9516   -4.2168 H         1 <0>         0.1372
     43 H17        -8.0054    4.8535   -3.6689 H         1 <0>         0.1232
     44 H18        -9.0671    3.4374   -3.4545 H         1 <0>         0.0787
     45 H19        -7.1398    4.5507   -1.3544 H         1 <0>         0.0781
     46 H20        -8.9115    4.7503   -1.3449 H         1 <0>         0.1229
@<TRIPOS>BOND
     1    1    2 1
     2    1   28 1
     3    1   29 1
     4    1   30 1
     5    2    3 1
     6    2   31 1
     7    2   32 1
     8    3    8 ar
     9    3    4 ar
    10    4    5 ar
    11    4   33 1
    12    5    6 ar
    13    5   11 1
    14    6    7 ar
    15    6   10 1
    16    7    8 ar
    17    7   34 1
    18    8    9 1
    19    9   35 1
    20   10   36 1
    21   11   12 2
    22   11   16 1
    23   12   13 1
    24   12   18 1
    25   13   14 2
    26   13   17 1
    27   14   16 1
    28   15   16 1
    29   17   37 1
    30   17   38 1
    31   17   39 1
    32   18   23 ar
    33   18   19 ar
    34   19   20 ar
    35   19   40 1
    36   20   21 ar
    37   20   41 1
    38   21   27 1
    39   21   22 ar
    40   22   23 ar
    41   22   24 1
    42   23   42 1
    43   24   25 1
    44   25   26 1
    45   25   43 1
    46   25   44 1
    47   26   27 1
    48   26   45 1
    49   26   46 1
@<TRIPOS>MOLECULE
CHEMBL213801
   40    43     0     0     0
SMALL
USER_CHARGES

@<TRIPOS>ATOM
      1 C1         -0.0187    1.5258    0.0104 C.3       1 <0>        -0.1532
      2 C2          0.0021   -0.0041    0.0020 C.3       1 <0>        -0.1198
      3 C3          0.7182   -0.4975   -1.2568 C.3       1 <0>        -0.1380
      4 C4          0.7390   -2.0273   -1.2652 C.3       1 <0>         0.1052
      5 N1          1.4247   -2.4998   -2.4705 N.pl3     1 <0>        -0.4482
      6 C5          0.8415   -2.7672   -3.6872 C.ar      1 <0>         0.3201
      7 C6          1.8796   -3.1904   -4.5336 C.ar      1 <0>        -0.1087
      8 C7          1.5582   -3.5328   -5.8572 C.ar      1 <0>         0.5163
      9 N2          0.2903   -3.4406   -6.2456 N.ar      1 <0>        -0.5924
     10 C8         -0.6519   -3.0373   -5.4132 C.ar      1 <0>         0.3710
     11 N3         -0.3968   -2.7070   -4.1642 N.ar      1 <0>        -0.5590
     12 N4          2.5401   -3.9566   -6.7380 N.pl3     1 <0>        -0.8145
     13 N5          3.0264   -3.1628   -3.8102 N.2       1 <0>        -0.3976
     14 C9          2.7642   -2.7505   -2.5948 C.2       1 <0>         0.1987
     15 S1          3.9558   -2.5537   -1.3119 S.3       1 <0>         0.2788
     16 C10         5.4768   -3.0235   -2.0671 C.2       1 <0>         0.0879
     17 N6          5.6963   -3.4236   -3.2993 N.2       1 <0>        -0.4447
     18 C11         6.9271   -3.7551   -3.7457 C.ar      1 <0>         0.1090
     19 C12         7.2970   -4.1977   -5.0376 C.ar      1 <0>        -0.0630
     20 C13         8.6021   -4.4959   -5.3295 C.ar      1 <0>        -0.0842
     21 C14         9.6039   -4.3764   -4.3771 C.ar      1 <0>        -0.1240
     22 C15         9.2783   -3.9458   -3.1017 C.ar      1 <0>         0.1541
     23 C16         7.9716   -3.6447   -2.8011 C.ar      1 <0>        -0.1931
     24 S2          7.1152   -3.0697   -1.3545 S.3       1 <0>         0.0898
     25 F1         10.2387   -3.8230   -2.1594 F         1 <0>        -0.1269
     26 H1          1.0039    1.9031    0.0027 H         1 <0>         0.0557
     27 H2         -0.5459    1.8868   -0.8726 H         1 <0>         0.0552
     28 H3         -0.5289    1.8773    0.9072 H         1 <0>         0.0589
     29 H4          0.5293   -0.3651    0.8851 H         1 <0>         0.0675
     30 H5         -1.0205   -0.3814    0.0098 H         1 <0>         0.0681
     31 H6          0.1910   -0.1364   -2.1398 H         1 <0>         0.0747
     32 H7          1.7408   -0.1202   -1.2645 H         1 <0>         0.0720
     33 H8          1.2661   -2.3884   -0.3821 H         1 <0>         0.0963
     34 H9         -0.2836   -2.4046   -1.2575 H         1 <0>         0.1067
     35 H10        -1.6695   -2.9763   -5.7699 H         1 <0>         0.2073
     36 H11         3.4620   -4.0195   -6.4429 H         1 <0>         0.4196
     37 H12         2.3057   -4.1903   -7.6498 H         1 <0>         0.4112
     38 H13         6.5418   -4.3022   -5.8026 H         1 <0>         0.1412
     39 H14         8.8569   -4.8321   -6.3237 H         1 <0>         0.1478
     40 H15        10.6266   -4.6168   -4.6275 H         1 <0>         0.1539
@<TRIPOS>BOND
     1    1    2 1
     2    1   26 1
     3    1   27 1
     4    1   28 1
     5    2    3 1
     6    2   29 1
     7    2   30 1
     8    3    4 1
     9    3   31 1
    10    3   32 1
    11    4    5 1
    12    4   33 1
    13    4   34 1
    14    5   14 1
    15    5    6 1
    16    6   11 ar
    17    6    7 ar
    18    7    8 ar
    19    7   13 1
    20    8    9 ar
    21    8   12 1
    22    9   10 ar
    23   10   11 ar
    24   10   35 1
    25   12   36 1
    26   12   37 1
    27   13   14 2
    28   14   15 1
    29   15   16 1
    30   16   24 1
    31   16   17 2
    32   17   18 1
    33   18   23 ar
    34   18   19 ar
    35   19   20 ar
    36   19   38 1
    37   20   21 ar
    38   20   39 1
    39   21   22 ar
    40   21   40 1
    41   22   23 ar
    42   22   25 1
    43   23   24 1
@<TRIPOS>MOLECULE
CHEMBL386882
   40    43     0     0     0
SMALL
USER_CHARGES

@<TRIPOS>ATOM
      1 C1         -0.0187    1.5258    0.0104 C.3       1 <0>        -0.1531
      2 C2          0.0021   -0.0041    0.0020 C.3       1 <0>        -0.1198
      3 C3         -1.4333   -0.5336    0.0129 C.3       1 <0>        -0.1379
      4 C4         -1.4126   -2.0635    0.0045 C.3       1 <0>         0.1053
      5 N1         -2.7870   -2.5706    0.0149 N.pl3     1 <0>        -0.4484
      6 C5         -3.5422   -2.8532    1.1291 C.ar      1 <0>         0.3197
      7 C6         -4.7832   -3.3093    0.6548 C.ar      1 <0>        -0.1086
      8 C7         -5.7600   -3.6731    1.5961 C.ar      1 <0>         0.5161
      9 N2         -5.4650   -3.5689    2.8879 N.ar      1 <0>        -0.5925
     10 C8         -4.2836   -3.1344    3.2864 C.ar      1 <0>         0.3707
     11 N3         -3.3380   -2.7830    2.4398 N.ar      1 <0>        -0.5588
     12 N4         -7.0027   -4.1296    1.1875 N.pl3     1 <0>        -0.8148
     13 N5         -4.7306   -3.2851   -0.7002 N.2       1 <0>        -0.3982
     14 C9         -3.5577   -2.8446   -1.0822 C.2       1 <0>         0.1999
     15 S1         -3.0476   -2.6398   -2.7563 S.3       1 <0>         0.2762
     16 C10        -4.4497   -3.1487   -3.6943 C.2       1 <0>         0.0826
     17 N6         -5.6158   -3.5775   -3.2669 N.2       1 <0>        -0.4416
     18 C11        -6.6090   -3.9372   -4.1083 C.ar      1 <0>         0.0860
     19 C12        -7.9007   -4.4119   -3.7816 C.ar      1 <0>        -0.0364
     20 C13        -8.7975   -4.7366   -4.7657 C.ar      1 <0>        -0.1081
     21 C14        -8.4757   -4.6126   -6.1095 C.ar      1 <0>        -0.0580
     22 C15        -7.2209   -4.1507   -6.4657 C.ar      1 <0>        -0.0451
     23 C16        -6.3160   -3.8235   -5.4861 C.ar      1 <0>        -0.1294
     24 S2         -4.6503   -3.2055   -5.4694 S.3       1 <0>         0.0904
     25 Br1        -6.7549   -3.9724   -8.2897 Br        1 <0>        -0.0279
     26 H1          1.0039    1.9031    0.0027 H         1 <0>         0.0589
     27 H2         -0.5459    1.8868   -0.8726 H         1 <0>         0.0557
     28 H3         -0.5289    1.8773    0.9072 H         1 <0>         0.0552
     29 H4          0.5123   -0.3556   -0.8948 H         1 <0>         0.0675
     30 H5          0.5293   -0.3651    0.8851 H         1 <0>         0.0681
     31 H6         -1.9435   -0.1821    0.9097 H         1 <0>         0.0746
     32 H7         -1.9605   -0.1726   -0.8702 H         1 <0>         0.0720
     33 H8         -0.9024   -2.4150   -0.8923 H         1 <0>         0.0963
     34 H9         -0.8854   -2.4246    0.8875 H         1 <0>         0.1066
     35 H10        -4.0853   -3.0651    4.3457 H         1 <0>         0.2072
     36 H11        -7.2062   -4.2010    0.2418 H         1 <0>         0.4194
     37 H12        -7.6691   -4.3778    1.8471 H         1 <0>         0.4111
     38 H13        -8.1833   -4.5202   -2.7448 H         1 <0>         0.1410
     39 H14        -9.7770   -5.0975   -4.4888 H         1 <0>         0.1470
     40 H15        -9.1969   -4.8742   -6.8696 H         1 <0>         0.1509
@<TRIPOS>BOND
     1    1    2 1
     2    1   26 1
     3    1   27 1
     4    1   28 1
     5    2    3 1
     6    2   29 1
     7    2   30 1
     8    3    4 1
     9    3   31 1
    10    3   32 1
    11    4    5 1
    12    4   33 1
    13    4   34 1
    14    5   14 1
    15    5    6 1
    16    6   11 ar
    17    6    7 ar
    18    7    8 ar
    19    7   13 1
    20    8    9 ar
    21    8   12 1
    22    9   10 ar
    23   10   11 ar
    24   10   35 1
    25   12   36 1
    26   12   37 1
    27   13   14 2
    28   14   15 1
    29   15   16 1
    30   16   24 1
    31   16   17 2
    32   17   18 1
    33   18   23 ar
    34   18   19 ar
    35   19   20 ar
    36   19   38 1
    37   20   21 ar
    38   20   39 1
    39   21   22 ar
    40   21   40 1
    41   22   23 ar
    42   22   25 1
    43   23   24 1
@<TRIPOS>MOLECULE
CHEMBL278315
   79    80     0     0     0
SMALL
USER_CHARGES

@<TRIPOS>ATOM
      1 C1         -0.2239    0.7132    1.7044 C.3       1 <0>        -0.1402
      2 C2         -0.3398   -0.7147    1.1649 C.3       1 <0>        -0.0739
      3 H1         -1.3438   -0.8719    0.7782 H         1 <0>         0.0859
      4 C3          0.6899   -0.9346    0.0563 C.3       1 <0>        -0.1308
      5 C4          0.1076   -0.6374   -1.3236 C.3       1 <0>         0.1076
      6 H2          0.9219   -0.6819   -2.0549 H         1 <0>         0.0568
      7 C5         -0.9532   -1.6700   -1.6939 C.3       1 <0>         0.1155
      8 H3         -1.7173   -1.7118   -0.9176 H         1 <0>         0.0818
      9 C6         -1.6179   -1.3140   -3.0281 C.3       1 <0>        -0.0868
     10 H4         -1.4228   -0.2770   -3.2701 H         1 <0>         0.0910
     11 C7         -3.0912   -1.6024   -2.9366 C.2       1 <0>        -0.1195
     12 C8         -4.0302   -0.7074   -3.0596 C.2       1 <0>        -0.1287
     13 C9         -5.4789   -1.1327   -2.9283 C.3       1 <0>         0.1222
     14 H5         -5.6526   -1.9792   -3.5893 H         1 <0>         0.0958
     15 C10        -5.7498   -1.5520   -1.4848 C.3       1 <0>         0.1229
     16 H6         -5.8198   -2.6377   -1.4378 H         1 <0>         0.1201
     17 C11        -7.0330   -0.9452   -0.9747 C.2       1 <0>        -0.1720
     18 C12        -7.2785   -0.9105    0.3436 C.2       1 <0>        -0.0997
     19 C13        -6.3624   -1.4825    1.2460 C.2       1 <0>        -0.0683
     20 C14        -6.1110   -1.0200    2.4930 C.2       1 <0>        -0.1355
     21 C15        -5.1050   -1.7106    3.2727 C.2       1 <0>         0.5213
     22 O1         -4.7790   -2.8209    2.8577 O.2       1 <0>        -0.5299
     23 N1         -4.5309   -1.2822    4.3865 N.2       1 <0>        -0.6046
     24 C16        -3.2260   -1.1751    4.5052 C.2       1 <0>         0.2799
     25 C17        -2.6262   -0.7586    5.7202 C.2       1 <0>        -0.3844
     26 C18        -1.2765   -0.6372    5.8113 C.2       1 <0>         0.2957
     27 O2         -0.7213   -0.2142    6.9727 O.3       1 <0>        -0.6471
     28 C19        -0.4037   -0.9541    4.6685 C.2       1 <0>         0.1511
     29 C20        -0.9341   -1.3654    3.4941 C.2       1 <0>        -0.2139
     30 C21        -0.0743   -1.7046    2.3018 C.3       1 <0>        -0.0540
     31 C22        -2.3402   -1.4984    3.3488 C.2       1 <0>         0.3752
     32 O3         -2.7948   -1.8611    2.2836 O.2       1 <0>        -0.3990
     33 O4          0.9374   -0.8415    4.8117 O.3       1 <0>        -0.3264
     34 C23         1.5688   -1.7334    5.7325 C.3       1 <0>         0.0384
     35 C24        -6.8436    0.1698    3.0458 C.3       1 <0>        -0.1095
     36 O5         -4.6540   -1.1198   -0.6701 O.3       1 <0>        -0.3393
     37 C25        -4.6649    0.2785   -0.3754 C.3       1 <0>         0.0250
     38 O6         -6.3204   -0.0442   -3.2972 O.3       1 <0>        -0.3455
     39 C26        -6.6733    0.0436   -4.5935 C.2       1 <0>         0.6470
     40 O7         -6.2753   -0.7842   -5.3889 O.2       1 <0>        -0.5704
     41 N2         -7.4679    1.0498   -5.0089 N.am      1 <0>        -0.8288
     42 C27        -3.7237    0.7447   -3.3208 C.3       1 <0>        -0.1129
     43 C28        -1.0115   -2.1977   -4.1280 C.3       1 <0>        -0.1357
     44 O8         -0.3361   -2.9574   -1.8156 O.3       1 <0>        -0.5622
     45 O9         -0.4562    0.6735   -1.3447 O.3       1 <0>        -0.3682
     46 C29         0.4637    1.6956   -1.7332 C.3       1 <0>         0.0322
     47 H7          0.7817    0.8743    2.0930 H         1 <0>         0.0474
     48 H8         -0.4207    1.4225    0.9005 H         1 <0>         0.0561
     49 H9         -0.9501    0.8596    2.5040 H         1 <0>         0.0478
     50 H10         1.5531   -0.2956    0.2388 H         1 <0>         0.0596
     51 H11         1.0171   -1.9770    0.0895 H         1 <0>         0.0768
     52 H12        -3.3975   -2.6351   -2.7561 H         1 <0>         0.0997
     53 H13        -7.7627   -0.5541   -1.6568 H         1 <0>         0.1240
     54 H14        -8.1894   -0.4440    0.6965 H         1 <0>         0.1186
     55 H15        -5.8292   -2.3851    0.9268 H         1 <0>         0.1339
     56 H16        -3.2453   -0.5464    6.5756 H         1 <0>         0.1237
     57 H17        -0.3204   -2.7143    1.9639 H         1 <0>         0.0672
     58 H18         0.9759   -1.6671    2.5825 H         1 <0>         0.0705
     59 H19         1.4171   -2.7617    5.4044 H         1 <0>         0.0402
     60 H20         2.6366   -1.5185    5.7724 H         1 <0>         0.0878
     61 H21         1.1341   -1.6003    6.7232 H         1 <0>         0.0700
     62 H22        -7.7466   -0.1646    3.5565 H         1 <0>         0.0670
     63 H23        -6.2010    0.6965    3.7514 H         1 <0>         0.0730
     64 H24        -7.1145    0.8407    2.2305 H         1 <0>         0.0572
     65 H25        -3.6710    0.5899   -0.0543 H         1 <0>         0.0781
     66 H26        -4.9496    0.8357   -1.2680 H         1 <0>         0.0517
     67 H27        -5.3826    0.4764    0.4207 H         1 <0>         0.0431
     68 H28        -7.7856    1.7107   -4.3739 H         1 <0>         0.4079
     69 H29        -7.7222    1.1131   -5.9429 H         1 <0>         0.4241
     70 H30        -2.6442    0.8830   -3.3810 H         1 <0>         0.0693
     71 H31        -4.1821    1.0493   -4.2616 H         1 <0>         0.0496
     72 H32        -4.1230    1.3522   -2.5086 H         1 <0>         0.0723
     73 H33        -1.1912   -3.2465   -3.8918 H         1 <0>         0.0560
     74 H34        -1.4747   -1.9562   -5.0847 H         1 <0>         0.0495
     75 H35         0.0618   -2.0176   -4.1882 H         1 <0>         0.0567
     76 H36        -0.9497   -3.6672   -2.0499 H         1 <0>         0.3800
     77 H37        -0.0413    2.6615   -1.7242 H         1 <0>         0.0840
     78 H38         1.3001    1.7164   -1.0345 H         1 <0>         0.0422
     79 H39         0.8340    1.4886   -2.7372 H         1 <0>         0.0366
@<TRIPOS>BOND
     1    1    2 1
     2    1   47 1
     3    1   48 1
     4    1   49 1
     5    2    3 1
     6    2   30 1
     7    2    4 1
     8    4    5 1
     9    4   50 1
    10    4   51 1
    11    5    6 1
    12    5    7 1
    13    5   45 1
    14    7    8 1
    15    7    9 1
    16    7   44 1
    17    9   10 1
    18    9   11 1
    19    9   43 1
    20   11   12 2
    21   11   52 1
    22   12   13 1
    23   12   42 1
    24   13   14 1
    25   13   15 1
    26   13   38 1
    27   15   16 1
    28   15   17 1
    29   15   36 1
    30   17   18 2
    31   17   53 1
    32   18   19 1
    33   18   54 1
    34   19   20 2
    35   19   55 1
    36   20   21 1
    37   20   35 1
    38   21   22 2
    39   21   23 1
    40   23   24 2
    41   24   31 1
    42   24   25 1
    43   25   26 2
    44   25   56 1
    45   26   27 1
    46   26   28 1
    47   28   29 2
    48   28   33 1
    49   29   30 1
    50   29   31 1
    51   30   57 1
    52   30   58 1
    53   31   32 2
    54   33   34 1
    55   34   59 1
    56   34   60 1
    57   34   61 1
    58   35   62 1
    59   35   63 1
    60   35   64 1
    61   36   37 1
    62   37   65 1
    63   37   66 1
    64   37   67 1
    65   38   39 1
    66   39   40 2
    67   39   41 am
    68   41   68 1
    69   41   69 1
    70   42   70 1
    71   42   71 1
    72   42   72 1
    73   43   73 1
    74   43   74 1
    75   43   75 1
    76   44   76 1
    77   45   46 1
    78   46   77 1
    79   46   78 1
    80   46   79 1
@<TRIPOS>MOLECULE
CHEMBL215947
   44    48     0     0     0
SMALL
USER_CHARGES

@<TRIPOS>ATOM
      1 C1         -0.0167    1.3827    0.0096 C.ar      1 <0>        -0.0989
      2 C2          1.1420    2.1150    0.0025 C.ar      1 <0>        -0.0432
      3 C3          2.4024    1.4739   -0.0129 C.ar      1 <0>         0.0831
      4 C4          2.3838    0.0606   -0.0203 C.ar      1 <0>        -0.1404
      5 C5          1.2184   -0.6652   -0.0128 C.ar      1 <0>         0.0085
      6 C6          0.0021   -0.0041    0.0020 C.ar      1 <0>        -0.0684
      7 Cl1         1.2696   -2.4004   -0.0225 Cl        1 <0>        -0.0423
      8 S1          4.1144   -0.3409   -0.0383 S.3       1 <0>         0.1020
      9 C7          4.7340    1.3355   -0.0350 C.2       1 <0>         0.0688
     10 N1          3.6271    2.0432   -0.0211 N.2       1 <0>        -0.4335
     11 S2          6.4043    1.8964   -0.0469 S.3       1 <0>         0.2566
     12 C8          6.2642    3.6528   -0.0365 C.2       1 <0>         0.1967
     13 N2          5.1365    4.3189   -0.0174 N.2       1 <0>        -0.3788
     14 C9          5.3992    5.6493   -0.0147 C.ar      1 <0>        -0.1081
     15 C10         4.6075    6.8096    0.0016 C.ar      1 <0>         0.5229
     16 N3          5.2153    7.9915   -0.0017 N.ar      1 <0>        -0.5847
     17 C11         6.5326    8.0827   -0.0199 C.ar      1 <0>         0.3860
     18 N4          7.3137    7.0228   -0.0356 N.ar      1 <0>        -0.5708
     19 C12         6.7954    5.7994   -0.0337 C.ar      1 <0>         0.3216
     20 N5          7.3172    4.5267   -0.0413 N.pl3     1 <0>        -0.4594
     21 C13         8.7385    4.1721   -0.0557 C.3       1 <0>         0.0893
     22 C14         9.2207    4.0568   -1.5031 C.3       1 <0>        -0.0263
     23 N6         10.6460    3.7012   -1.5176 N.4       1 <0>        -0.4740
     24 C15        11.1090    3.5905   -2.9073 C.3       1 <0>        -0.0852
     25 C16        11.5906    2.2189   -3.3843 C.3       1 <0>        -0.1528
     26 C17        12.6009    3.3410   -3.1372 C.3       1 <0>        -0.1510
     27 N7          3.2248    6.7239    0.0202 N.pl3     1 <0>        -0.8053
     28 H1         -0.9661    1.8974    0.0260 H         1 <0>         0.1510
     29 H2          1.0918    3.1938    0.0084 H         1 <0>         0.1419
     30 H3         -0.9224   -0.5624    0.0084 H         1 <0>         0.1558
     31 H4          6.9860    9.0629   -0.0223 H         1 <0>         0.2128
     32 H5          9.3110    4.9448    0.4575 H         1 <0>         0.1278
     33 H6          8.8801    3.2178    0.4516 H         1 <0>         0.1168
     34 H7          8.6483    3.2841   -2.0163 H         1 <0>         0.1415
     35 H8          9.0792    5.0111   -2.0104 H         1 <0>         0.1439
     36 H9         11.1759    4.4165   -1.0425 H         1 <0>         0.4332
     37 H10        10.5870    4.2197   -3.6283 H         1 <0>         0.1783
     38 H11        11.5639    1.3986   -2.6670 H         1 <0>         0.1236
     39 H12        11.3854    1.9454   -4.4193 H         1 <0>         0.1349
     40 H13        13.0603    3.8057   -4.0095 H         1 <0>         0.1354
     41 H14        13.2389    3.2589   -2.2572 H         1 <0>         0.1232
     42 H15         2.7927    5.8554    0.0221 H         1 <0>         0.4227
     43 H16         2.6889    7.5323    0.0314 H         1 <0>         0.4169
     44 H17        10.7770    2.8178   -1.0480 H         1 <0>         0.4279
@<TRIPOS>BOND
     1    1    6 ar
     2    1    2 ar
     3    1   28 1
     4    2    3 ar
     5    2   29 1
     6    3   10 1
     7    3    4 ar
     8    4    5 ar
     9    4    8 1
    10    5    6 ar
    11    5    7 1
    12    6   30 1
    13    8    9 1
    14    9   10 2
    15    9   11 1
    16   11   12 1
    17   12   20 1
    18   12   13 2
    19   13   14 1
    20   14   19 ar
    21   14   15 ar
    22   15   16 ar
    23   15   27 1
    24   16   17 ar
    25   17   18 ar
    26   17   31 1
    27   18   19 ar
    28   19   20 1
    29   20   21 1
    30   21   22 1
    31   21   32 1
    32   21   33 1
    33   22   23 1
    34   22   34 1
    35   22   35 1
    36   23   24 1
    37   23   36 1
    38   23   44 1
    39   24   26 1
    40   24   25 1
    41   24   37 1
    42   25   26 1
    43   25   38 1
    44   25   39 1
    45   26   40 1
    46   26   41 1
    47   27   42 1
    48   27   43 1
@<TRIPOS>MOLECULE
CHEMBL377631
   46    49     0     0     0
SMALL
USER_CHARGES

@<TRIPOS>ATOM
      1 C1         -0.0184    1.5028    0.0103 C.3       1 <0>        -0.1472
      2 C2          0.0021   -0.0041    0.0020 C.2       1 <0>         0.4592
      3 O1          0.0203   -0.6138    1.0450 O.2       1 <0>        -0.5121
      4 O2          0.0001   -0.6689   -1.1641 O.3       1 <0>        -0.3533
      5 C3          0.0201   -2.0962   -1.0971 C.3       1 <0>         0.0649
      6 C4          0.0146   -2.6733   -2.5141 C.3       1 <0>        -0.1140
      7 C5          0.0361   -4.2015   -2.4424 C.3       1 <0>        -0.1364
      8 C6          0.0305   -4.7786   -3.8594 C.3       1 <0>         0.1088
      9 N1          0.0511   -6.2419   -3.7908 N.pl3     1 <0>        -0.4494
     10 C7          1.1709   -7.0398   -3.7576 C.ar      1 <0>         0.3205
     11 C8          0.7057   -8.3637   -3.6928 C.ar      1 <0>        -0.1086
     12 C9          1.6542   -9.3985   -3.6480 C.ar      1 <0>         0.5165
     13 N2          2.9439   -9.0773   -3.6690 N.ar      1 <0>        -0.5921
     14 C10         3.3336   -7.8174   -3.7305 C.ar      1 <0>         0.3718
     15 N3          2.4801   -6.8154   -3.7744 N.ar      1 <0>        -0.5592
     16 N4          1.2549  -10.7236   -3.5830 N.pl3     1 <0>        -0.8143
     17 N5         -0.6496   -8.3152   -3.6894 N.2       1 <0>        -0.3967
     18 C11        -1.0403   -7.0660   -3.7419 C.2       1 <0>         0.1998
     19 S1         -2.7181   -6.5282   -3.7526 S.3       1 <0>         0.2760
     20 C12        -3.6458   -8.0241   -3.6732 C.2       1 <0>         0.0834
     21 N6         -3.2098   -9.2620   -3.6124 N.2       1 <0>        -0.4421
     22 C13        -4.0439  -10.3227   -3.5547 C.ar      1 <0>         0.0922
     23 C14        -3.7075  -11.6949   -3.4869 C.ar      1 <0>        -0.0477
     24 C15        -4.6848  -12.6541   -3.4346 C.ar      1 <0>        -0.1008
     25 C16        -6.0310  -12.3191   -3.4455 C.ar      1 <0>        -0.0788
     26 C17        -6.3967  -10.9858   -3.5106 C.ar      1 <0>         0.0125
     27 C18        -5.4237  -10.0181   -3.5638 C.ar      1 <0>        -0.1471
     28 S2         -5.4194   -8.2434   -3.6471 S.3       1 <0>         0.0903
     29 Cl1        -8.0744  -10.5398   -3.5262 Cl        1 <0>        -0.0492
     30 H1          1.0042    1.8801    0.0026 H         1 <0>         0.1060
     31 H2         -0.5455    1.8639   -0.8728 H         1 <0>         0.0951
     32 H3         -0.5286    1.8543    0.9071 H         1 <0>         0.1038
     33 H4          0.9196   -2.4228   -0.5753 H         1 <0>         0.0695
     34 H5         -0.8601   -2.4471   -0.5584 H         1 <0>         0.0702
     35 H6         -0.8849   -2.3467   -3.0359 H         1 <0>         0.0820
     36 H7          0.8948   -2.3224   -3.0528 H         1 <0>         0.0826
     37 H8          0.9356   -4.5281   -1.9206 H         1 <0>         0.0800
     38 H9         -0.8442   -4.5524   -1.9037 H         1 <0>         0.0771
     39 H10        -0.8690   -4.4520   -4.3812 H         1 <0>         0.0992
     40 H11         0.9107   -4.4278   -4.3981 H         1 <0>         0.1097
     41 H12         4.3914   -7.6004   -3.7455 H         1 <0>         0.2074
     42 H13         0.3107  -10.9454   -3.5680 H         1 <0>         0.4196
     43 H14         1.9194  -11.4295   -3.5526 H         1 <0>         0.4114
     44 H15        -2.6686  -11.9901   -3.4767 H         1 <0>         0.1408
     45 H16        -4.4005  -13.6948   -3.3841 H         1 <0>         0.1473
     46 H17        -6.7857  -13.0905   -3.4039 H         1 <0>         0.1517
@<TRIPOS>BOND
     1    1    2 1
     2    1   30 1
     3    1   31 1
     4    1   32 1
     5    2    3 2
     6    2    4 1
     7    4    5 1
     8    5    6 1
     9    5   33 1
    10    5   34 1
    11    6    7 1
    12    6   35 1
    13    6   36 1
    14    7    8 1
    15    7   37 1
    16    7   38 1
    17    8    9 1
    18    8   39 1
    19    8   40 1
    20    9   18 1
    21    9   10 1
    22   10   15 ar
    23   10   11 ar
    24   11   12 ar
    25   11   17 1
    26   12   13 ar
    27   12   16 1
    28   13   14 ar
    29   14   15 ar
    30   14   41 1
    31   16   42 1
    32   16   43 1
    33   17   18 2
    34   18   19 1
    35   19   20 1
    36   20   28 1
    37   20   21 2
    38   21   22 1
    39   22   27 ar
    40   22   23 ar
    41   23   24 ar
    42   23   44 1
    43   24   25 ar
    44   24   45 1
    45   25   26 ar
    46   25   46 1
    47   26   27 ar
    48   26   29 1
    49   27   28 1
@<TRIPOS>MOLECULE
CHEMBL212076
   43    46     0     0     0
SMALL
USER_CHARGES

@<TRIPOS>ATOM
      1 C1         -0.0184    1.5028    0.0103 C.3       1 <0>        -0.1478
      2 C2          0.0021   -0.0041    0.0020 C.2       1 <0>         0.4607
      3 O1          1.0565   -0.5939   -0.0112 O.2       1 <0>        -0.5101
      4 O2         -1.1511   -0.6910    0.0093 O.3       1 <0>        -0.3518
      5 C3         -1.0570   -2.1168    0.0008 C.3       1 <0>         0.0703
      6 C4         -2.4627   -2.7208    0.0110 C.3       1 <0>        -0.1389
      7 C5         -2.3619   -4.2475    0.0018 C.3       1 <0>         0.1110
      8 N1         -3.7079   -4.8258    0.0115 N.pl3     1 <0>        -0.4491
      9 C6         -4.4476   -5.1481    1.1255 C.ar      1 <0>         0.3212
     10 C7         -5.6633   -5.6675    0.6505 C.ar      1 <0>        -0.1079
     11 C8         -6.6198   -6.0825    1.5913 C.ar      1 <0>         0.5168
     12 N2         -6.3307   -5.9646    2.8833 N.ar      1 <0>        -0.5915
     13 C9         -5.1735   -5.4698    3.2823 C.ar      1 <0>         0.3726
     14 N3         -4.2474   -5.0687    2.4362 N.ar      1 <0>        -0.5594
     15 N4         -7.8371   -6.6025    1.1822 N.pl3     1 <0>        -0.8140
     16 N5         -5.6119   -5.6395   -0.7044 N.2       1 <0>        -0.3954
     17 C10        -4.4629   -5.1392   -1.0858 C.2       1 <0>         0.2008
     18 S1         -3.9631   -4.9089   -2.7597 S.3       1 <0>         0.2759
     19 C11        -5.3367   -5.4892   -3.6984 C.2       1 <0>         0.0833
     20 N6         -6.4795   -5.9771   -3.2716 N.2       1 <0>        -0.4419
     21 C12        -7.4528   -6.3868   -4.1135 C.ar      1 <0>         0.0921
     22 C13        -8.7188   -6.9270   -3.7872 C.ar      1 <0>        -0.0475
     23 C14        -9.5975   -7.2967   -4.7716 C.ar      1 <0>        -0.1008
     24 C15        -9.2822   -7.1562   -6.1153 C.ar      1 <0>        -0.0787
     25 C16        -8.0523   -6.6306   -6.4712 C.ar      1 <0>         0.0124
     26 C17        -7.1655   -6.2579   -5.4910 C.ar      1 <0>        -0.1472
     27 S2         -5.5332   -5.5566   -5.4736 S.3       1 <0>         0.0910
     28 Cl1        -7.6330   -6.4448   -8.1455 Cl        1 <0>        -0.0491
     29 H1          1.0042    1.8801    0.0026 H         1 <0>         0.1034
     30 H2         -0.5455    1.8639   -0.8728 H         1 <0>         0.1018
     31 H3         -0.5286    1.8543    0.9071 H         1 <0>         0.1016
     32 H4         -0.5289   -2.4407   -0.8960 H         1 <0>         0.0746
     33 H5         -0.5119   -2.4503    0.8838 H         1 <0>         0.0753
     34 H6         -2.9908   -2.3969    0.9078 H         1 <0>         0.0884
     35 H7         -3.0078   -2.3874   -0.8721 H         1 <0>         0.0856
     36 H8         -1.8338   -4.5713   -0.8950 H         1 <0>         0.1013
     37 H9         -1.8168   -4.5809    0.8848 H         1 <0>         0.1120
     38 H10        -4.9790   -5.3914    4.3418 H         1 <0>         0.2079
     39 H11        -8.0367   -6.6833    0.2364 H         1 <0>         0.4197
     40 H12        -8.4898   -6.8857    1.8415 H         1 <0>         0.4115
     41 H13        -8.9958   -7.0498   -2.7506 H         1 <0>         0.1408
     42 H14       -10.5574   -7.7073   -4.4950 H         1 <0>         0.1473
     43 H15        -9.9890   -7.4540   -6.8757 H         1 <0>         0.1517
@<TRIPOS>BOND
     1    1    2 1
     2    1   29 1
     3    1   30 1
     4    1   31 1
     5    2    3 2
     6    2    4 1
     7    4    5 1
     8    5    6 1
     9    5   32 1
    10    5   33 1
    11    6    7 1
    12    6   34 1
    13    6   35 1
    14    7    8 1
    15    7   36 1
    16    7   37 1
    17    8   17 1
    18    8    9 1
    19    9   14 ar
    20    9   10 ar
    21   10   11 ar
    22   10   16 1
    23   11   12 ar
    24   11   15 1
    25   12   13 ar
    26   13   14 ar
    27   13   38 1
    28   15   39 1
    29   15   40 1
    30   16   17 2
    31   17   18 1
    32   18   19 1
    33   19   27 1
    34   19   20 2
    35   20   21 1
    36   21   26 ar
    37   21   22 ar
    38   22   23 ar
    39   22   41 1
    40   23   24 ar
    41   23   42 1
    42   24   25 ar
    43   24   43 1
    44   25   26 ar
    45   25   28 1
    46   26   27 1
@<TRIPOS>MOLECULE
CHEMBL208239
   54    57     0     0     0
SMALL
USER_CHARGES

@<TRIPOS>ATOM
      1 C1         -0.1217    1.8801   -0.0159 C.3       1 <0>        -0.6502
      2 S1         -0.1066    0.0661   -0.0165 S.o2      1 <0>         2.4989
      3 O1          0.7142   -0.4168    1.0381 O.2       1 <0>        -0.9375
      4 O2         -1.4244   -0.4342   -0.1960 O.2       1 <0>        -0.9384
      5 C2          0.7482   -0.3791   -1.4915 C.ar      1 <0>        -0.6589
      6 C3          0.0473   -0.5567   -2.6697 C.ar      1 <0>        -0.0237
      7 C4          0.7179   -0.9061   -3.8269 C.ar      1 <0>        -0.1360
      8 C5          2.0894   -1.0774   -3.8061 C.ar      1 <0>        -0.0217
      9 C6          2.7904   -0.8989   -2.6281 C.ar      1 <0>        -0.1169
     10 C7          2.1203   -0.5454   -1.4718 C.ar      1 <0>        -0.0225
     11 C8          2.8204   -1.4592   -5.0674 C.3       1 <0>         0.0853
     12 N1          3.2298   -0.2434   -5.7831 N.3       1 <0>        -0.5273
     13 C9          2.0599    0.5051   -6.2616 C.3       1 <0>         0.0344
     14 C10         2.5184    1.8483   -6.8394 C.3       1 <0>         0.1476
     15 N2          3.5506    1.5919   -7.8553 N.pl3     1 <0>        -0.6456
     16 C11         4.6883    0.7342   -7.4902 C.3       1 <0>         0.1461
     17 C12         4.1444   -0.5651   -6.8867 C.3       1 <0>         0.0415
     18 C13         3.4527    2.1526   -9.1417 C.2       1 <0>         0.0377
     19 C14         2.9244    1.5529  -10.2359 C.2       1 <0>         0.0497
     20 N3          3.0187    2.4264  -11.2747 N.pl3     1 <0>        -0.4743
     21 H1          2.7192    2.2655  -12.1832 H         1 <0>         0.4454
     22 N4          3.6234    3.5985  -10.8035 N.2       1 <0>        -0.2505
     23 C15         3.8817    3.4430   -9.5217 C.2       1 <0>         0.1042
     24 C16         4.5155    4.4470   -8.6330 C.ar      1 <0>        -0.0386
     25 C17         4.8491    4.1088   -7.3230 C.ar      1 <0>        -0.0633
     26 C18         5.4388    5.0450   -6.4981 C.ar      1 <0>        -0.0775
     27 C19         5.7007    6.3254   -6.9706 C.ar      1 <0>         0.1420
     28 C20         5.3715    6.6688   -8.2730 C.ar      1 <0>        -0.1677
     29 C21         4.7853    5.7336   -9.1091 C.ar      1 <0>         0.1539
     30 O3          4.4677    6.0672  -10.3875 O.3       1 <0>        -0.4754
     31 O4          6.2808    7.2437   -6.1536 O.3       1 <0>        -0.4852
     32 Cl1         5.8538    4.6223   -4.8663 Cl        1 <0>        -0.0492
     33 H2          0.9029    2.2520   -0.0161 H         1 <0>         0.1320
     34 H3         -0.6388    2.2394   -0.9057 H         1 <0>         0.1313
     35 H4         -0.6383    2.2389    0.8743 H         1 <0>         0.1332
     36 H5         -1.0243   -0.4229   -2.6860 H         1 <0>         0.1414
     37 H6          0.1702   -1.0455   -4.7472 H         1 <0>         0.1291
     38 H7          3.8619   -1.0330   -2.6117 H         1 <0>         0.1342
     39 H8          2.6685   -0.4023   -0.5523 H         1 <0>         0.1424
     40 H9          3.7032   -2.0454   -4.8124 H         1 <0>         0.0901
     41 H10         2.1624   -2.0511   -5.7036 H         1 <0>         0.0483
     42 H11         1.5521   -0.0698   -7.0361 H         1 <0>         0.0373
     43 H12         1.3760    0.6808   -5.4312 H         1 <0>         0.0847
     44 H13         1.6712    2.3576   -7.2987 H         1 <0>         0.0731
     45 H14         2.9334    2.4667   -6.0436 H         1 <0>         0.0598
     46 H15         5.2758    0.5070   -8.3798 H         1 <0>         0.0753
     47 H16         5.3119    1.2456   -6.7569 H         1 <0>         0.0605
     48 H17         4.9724   -1.1655   -6.5098 H         1 <0>         0.0828
     49 H18         3.6077   -1.1251   -7.6525 H         1 <0>         0.0379
     50 H19         2.5040    0.5589  -10.2763 H         1 <0>         0.1758
     51 H20         4.6459    3.1146   -6.9533 H         1 <0>         0.1664
     52 H21         5.5765    7.6648   -8.6369 H         1 <0>         0.1472
     53 H22         3.5773    6.4303  -10.4896 H         1 <0>         0.3938
     54 H23         7.2472    7.2461   -6.1881 H         1 <0>         0.3971
@<TRIPOS>BOND
     1    1    2 1
     2    1   33 1
     3    1   34 1
     4    1   35 1
     5    2    3 2
     6    2    4 2
     7    2    5 1
     8    5   10 ar
     9    5    6 ar
    10    6    7 ar
    11    6   36 1
    12    7    8 ar
    13    7   37 1
    14    8    9 ar
    15    8   11 1
    16    9   10 ar
    17    9   38 1
    18   10   39 1
    19   11   12 1
    20   11   40 1
    21   11   41 1
    22   12   17 1
    23   12   13 1
    24   13   14 1
    25   13   42 1
    26   13   43 1
    27   14   15 1
    28   14   44 1
    29   14   45 1
    30   15   16 1
    31   15   18 1
    32   16   17 1
    33   16   46 1
    34   16   47 1
    35   17   48 1
    36   17   49 1
    37   18   23 1
    38   18   19 2
    39   19   20 1
    40   19   50 1
    41   20   21 1
    42   20   22 1
    43   22   23 2
    44   23   24 1
    45   24   29 ar
    46   24   25 ar
    47   25   26 ar
    48   25   51 1
    49   26   27 ar
    50   26   32 1
    51   27   28 ar
    52   27   31 1
    53   28   29 ar
    54   28   52 1
    55   29   30 1
    56   30   53 1
    57   31   54 1
@<TRIPOS>MOLECULE
CHEMBL208239__1
   55    58     0     0     0
SMALL
USER_CHARGES

@<TRIPOS>ATOM
      1 C1         -0.0225    1.8097    0.0120 C.3       1 <0>        -0.6471
      2 S1          0.0021   -0.0041    0.0020 S.o2      1 <0>         2.4913
      3 O1          0.8352   -0.4880    1.0465 O.2       1 <0>        -0.9251
      4 O2         -1.3147   -0.5105   -0.1678 O.2       1 <0>        -0.9254
      5 C2          0.8454   -0.4373   -1.4831 C.ar      1 <0>        -0.6316
      6 C3          0.1346   -0.6126   -2.6557 C.ar      1 <0>        -0.0182
      7 C4          0.7962   -0.9525   -3.8208 C.ar      1 <0>        -0.1163
      8 C5          2.1688   -1.1167   -3.8136 C.ar      1 <0>        -0.1063
      9 C6          2.8797   -0.9405   -2.6412 C.ar      1 <0>        -0.1126
     10 C7          2.2186   -0.5964   -1.4770 C.ar      1 <0>        -0.0169
     11 C8          2.8899   -1.4882   -5.0836 C.3       1 <0>         0.0372
     12 N1          3.2864   -0.2667   -5.7968 N.4       1 <0>        -0.3791
     13 C9          2.0844    0.4629   -6.2199 C.3       1 <0>        -0.0307
     14 C10         2.4945    1.7922   -6.8621 C.3       1 <0>         0.1309
     15 N2          3.4476    1.5114   -7.9470 N.pl3     1 <0>        -0.6364
     16 C11         4.6013    0.6483   -7.6501 C.3       1 <0>         0.1218
     17 C12         4.0917   -0.6270   -6.9706 C.3       1 <0>        -0.0240
     18 C13         3.2610    2.0522   -9.2309 C.2       1 <0>         0.0351
     19 C14         3.7546    3.2780   -9.6916 C.2       1 <0>         0.0520
     20 N3          3.3790    3.4409  -10.9348 N.2       1 <0>        -0.2633
     21 H1          2.2263    2.1899  -12.2028 H         1 <0>         0.4477
     22 N4          2.6270    2.3279  -11.3303 N.pl3     1 <0>        -0.4591
     23 C15         2.5624    1.4676  -10.2689 C.2       1 <0>         0.1229
     24 C16         1.8733    0.1606  -10.2379 C.ar      1 <0>        -0.0611
     25 C17         2.3217   -0.8866  -11.0440 C.ar      1 <0>        -0.0612
     26 C18         1.6758   -2.1054  -11.0124 C.ar      1 <0>        -0.0734
     27 C19         0.5790   -2.2934  -10.1797 C.ar      1 <0>         0.1527
     28 C20         0.1272   -1.2576   -9.3755 C.ar      1 <0>        -0.1672
     29 C21         0.7717   -0.0329   -9.3955 C.ar      1 <0>         0.1519
     30 O3          0.3331    0.9807   -8.6038 O.3       1 <0>        -0.4931
     31 O4         -0.0532   -3.4964  -10.1536 O.3       1 <0>        -0.4786
     32 Cl1         2.2340   -3.4073  -12.0159 Cl        1 <0>        -0.0307
     33 H2          1.0001    2.1870    0.0043 H         1 <0>         0.1331
     34 H3         -0.5497    2.1708   -0.8711 H         1 <0>         0.1328
     35 H4         -0.5327    2.1613    0.9088 H         1 <0>         0.1411
     36 H5         -0.9378   -0.4844   -2.6614 H         1 <0>         0.1552
     37 H6          0.2407   -1.0902   -4.7367 H         1 <0>         0.1416
     38 H7          3.9520   -1.0690   -2.6355 H         1 <0>         0.1431
     39 H8          2.7745   -0.4551   -0.5619 H         1 <0>         0.1556
     40 H9          3.7781   -2.0711   -4.8398 H         1 <0>         0.1418
     41 H10         2.2292   -2.0804   -5.7167 H         1 <0>         0.1367
     42 H11         1.5320   -0.1357   -6.9443 H         1 <0>         0.1341
     43 H12         1.4534    0.6576   -5.3527 H         1 <0>         0.1327
     44 H13         1.6139    2.2900   -7.2680 H         1 <0>         0.1233
     45 H14         2.9674    2.4295   -6.1149 H         1 <0>         0.0718
     46 H15         5.1136    0.3899   -8.5768 H         1 <0>         0.1142
     47 H16         5.2869    1.1702   -6.9824 H         1 <0>         0.0801
     48 H17         4.9399   -1.2353   -6.6566 H         1 <0>         0.1367
     49 H18         3.4787   -1.1925   -7.6723 H         1 <0>         0.1262
     50 H19         4.3469    3.9743   -9.1166 H         1 <0>         0.1877
     51 H20         3.1735   -0.7431  -11.6922 H         1 <0>         0.1466
     52 H21        -0.7254   -1.4082   -8.7300 H         1 <0>         0.1522
     53 H22        -0.3342    1.5438   -9.0193 H         1 <0>         0.4046
     54 H23         0.3015   -4.1130   -9.4985 H         1 <0>         0.4012
     55 H24         3.8327    0.3179   -5.1821 H         1 <0>         0.4216
@<TRIPOS>BOND
     1    1    2 1
     2    1   33 1
     3    1   34 1
     4    1   35 1
     5    2    3 2
     6    2    4 2
     7    2    5 1
     8    5   10 ar
     9    5    6 ar
    10    6    7 ar
    11    6   36 1
    12    7    8 ar
    13    7   37 1
    14    8    9 ar
    15    8   11 1
    16    9   10 ar
    17    9   38 1
    18   10   39 1
    19   11   12 1
    20   11   40 1
    21   11   41 1
    22   12   17 1
    23   12   13 1
    24   12   55 1
    25   13   14 1
    26   13   42 1
    27   13   43 1
    28   14   15 1
    29   14   44 1
    30   14   45 1
    31   15   16 1
    32   15   18 1
    33   16   17 1
    34   16   46 1
    35   16   47 1
    36   17   48 1
    37   17   49 1
    38   18   19 1
    39   18   23 2
    40   19   20 2
    41   19   50 1
    42   20   22 1
    43   21   22 1
    44   22   23 1
    45   23   24 1
    46   24   29 ar
    47   24   25 ar
    48   25   26 ar
    49   25   51 1
    50   26   27 ar
    51   26   32 1
    52   27   28 ar
    53   27   31 1
    54   28   29 ar
    55   28   52 1
    56   29   30 1
    57   30   53 1
    58   31   54 1
@<TRIPOS>MOLECULE
CHEMBL208239__2
   55    58     0     0     0
SMALL
USER_CHARGES

@<TRIPOS>ATOM
      1 C1         -0.1223    1.8819   -0.0140 C.3       1 <0>        -0.6470
      2 S1         -0.1062    0.0680   -0.0137 S.o2      1 <0>         2.4910
      3 O1          0.7149   -0.4140    1.0411 O.2       1 <0>        -0.9248
      4 O2         -1.4237   -0.4332   -0.1931 O.2       1 <0>        -0.9252
      5 C2          0.7489   -0.3775   -1.4885 C.ar      1 <0>        -0.6310
      6 C3          0.0483   -0.5560   -2.6667 C.ar      1 <0>        -0.0184
      7 C4          0.7191   -0.9055   -3.8237 C.ar      1 <0>        -0.1178
      8 C5          2.0908   -1.0760   -3.8026 C.ar      1 <0>        -0.1086
      9 C6          2.7916   -0.8966   -2.6247 C.ar      1 <0>        -0.1123
     10 C7          2.1212   -0.5429   -1.4686 C.ar      1 <0>        -0.0165
     11 C8          2.8220   -1.4579   -5.0638 C.3       1 <0>         0.0376
     12 N1          3.2309   -0.2423   -5.7800 N.4       1 <0>        -0.3806
     13 C9          2.0363    0.4905   -6.2183 C.3       1 <0>        -0.0309
     14 C10         2.4587    1.8143   -6.8640 C.3       1 <0>         0.1166
     15 N2          3.4206    1.5231   -7.9383 N.pl3     1 <0>        -0.6417
     16 C11         4.5674    0.6563   -7.6259 C.3       1 <0>         0.1141
     17 C12         4.0454   -0.6128   -6.9441 C.3       1 <0>        -0.0226
     18 C13         3.2485    2.0580   -9.2279 C.2       1 <0>         0.0094
     19 C14         2.6443    1.4429  -10.2733 C.2       1 <0>         0.0668
     20 N3          2.6836    2.2930  -11.3348 N.pl3     1 <0>        -0.4648
     21 H1          2.3252    2.1173  -12.2189 H         1 <0>         0.4520
     22 N4          3.3319    3.4661  -10.9284 N.2       1 <0>        -0.2391
     23 C15         3.6689    3.3340   -9.6624 C.2       1 <0>         0.1147
     24 C16         4.3705    4.3474   -8.8376 C.ar      1 <0>        -0.0476
     25 C17         4.7821    4.0321   -7.5442 C.ar      1 <0>        -0.0686
     26 C18         5.4347    4.9770   -6.7788 C.ar      1 <0>        -0.0819
     27 C19         5.6824    6.2434   -7.2946 C.ar      1 <0>         0.1525
     28 C20         5.2757    6.5640   -8.5809 C.ar      1 <0>        -0.1631
     29 C21         4.6258    5.6198   -9.3577 C.ar      1 <0>         0.1634
     30 O3          4.2321    5.9310  -10.6205 O.3       1 <0>        -0.4742
     31 O4          6.3248    7.1704   -6.5361 O.3       1 <0>        -0.4835
     32 Cl1         5.9470    4.5828   -5.1676 Cl        1 <0>        -0.0519
     33 H2          0.9021    2.2543   -0.0142 H         1 <0>         0.1332
     34 H3         -0.6395    2.2405   -0.9040 H         1 <0>         0.1329
     35 H4         -0.6392    2.2408    0.8760 H         1 <0>         0.1414
     36 H5         -1.0234   -0.4228   -2.6831 H         1 <0>         0.1554
     37 H6          0.1716   -1.0456   -4.7440 H         1 <0>         0.1424
     38 H7          3.8632   -1.0301   -2.6082 H         1 <0>         0.1433
     39 H8          2.6692   -0.3991   -0.5491 H         1 <0>         0.1557
     40 H9          3.7052   -2.0436   -4.8085 H         1 <0>         0.1429
     41 H10         2.1644   -2.0505   -5.6997 H         1 <0>         0.1405
     42 H11         1.4880   -0.1094   -6.9446 H         1 <0>         0.1336
     43 H12         1.3982    0.6931   -5.3581 H         1 <0>         0.1364
     44 H13         1.5843    2.3140   -7.2809 H         1 <0>         0.1188
     45 H14         2.9276    2.4536   -6.1160 H         1 <0>         0.0787
     46 H15         5.0870    0.3903   -8.5464 H         1 <0>         0.1206
     47 H16         5.2492    1.1786   -6.9547 H         1 <0>         0.0793
     48 H17         4.8878   -1.2233   -6.6188 H         1 <0>         0.1389
     49 H18         3.4363   -1.1794   -7.6484 H         1 <0>         0.1334
     50 H19         2.2096    0.4543  -10.2654 H         1 <0>         0.1794
     51 H20         4.5902    3.0488   -7.1407 H         1 <0>         0.1510
     52 H21         5.4698    7.5492   -8.9786 H         1 <0>         0.1526
     53 H22         3.3417    6.3043  -10.6741 H         1 <0>         0.3985
     54 H23         7.2870    7.1585   -6.6317 H         1 <0>         0.4025
     55 H24         3.7742    0.3432   -5.1635 H         1 <0>         0.4226
@<TRIPOS>BOND
     1    1    2 1
     2    1   33 1
     3    1   34 1
     4    1   35 1
     5    2    3 2
     6    2    4 2
     7    2    5 1
     8    5   10 ar
     9    5    6 ar
    10    6    7 ar
    11    6   36 1
    12    7    8 ar
    13    7   37 1
    14    8    9 ar
    15    8   11 1
    16    9   10 ar
    17    9   38 1
    18   10   39 1
    19   11   12 1
    20   11   40 1
    21   11   41 1
    22   12   17 1
    23   12   13 1
    24   12   55 1
    25   13   14 1
    26   13   42 1
    27   13   43 1
    28   14   15 1
    29   14   44 1
    30   14   45 1
    31   15   16 1
    32   15   18 1
    33   16   17 1
    34   16   46 1
    35   16   47 1
    36   17   48 1
    37   17   49 1
    38   18   23 1
    39   18   19 2
    40   19   20 1
    41   19   50 1
    42   20   21 1
    43   20   22 1
    44   22   23 2
    45   23   24 1
    46   24   29 ar
    47   24   25 ar
    48   25   26 ar
    49   25   51 1
    50   26   27 ar
    51   26   32 1
    52   27   28 ar
    53   27   31 1
    54   28   29 ar
    55   28   52 1
    56   29   30 1
    57   30   53 1
    58   31   54 1
@<TRIPOS>MOLECULE
CHEMBL208239__3
   54    57     0     0     0
SMALL
USER_CHARGES

@<TRIPOS>ATOM
      1 C1         -0.0225    1.8097    0.0120 C.3       1 <0>        -0.6502
      2 S1          0.0021   -0.0041    0.0020 S.o2      1 <0>         2.4991
      3 O1          0.8352   -0.4880    1.0465 O.2       1 <0>        -0.9378
      4 O2         -1.3147   -0.5105   -0.1678 O.2       1 <0>        -0.9385
      5 C2          0.8454   -0.4373   -1.4831 C.ar      1 <0>        -0.6596
      6 C3          0.1346   -0.6126   -2.6557 C.ar      1 <0>        -0.0238
      7 C4          0.7962   -0.9525   -3.8208 C.ar      1 <0>        -0.1343
      8 C5          2.1688   -1.1167   -3.8136 C.ar      1 <0>        -0.0197
      9 C6          2.8797   -0.9405   -2.6412 C.ar      1 <0>        -0.1178
     10 C7          2.2186   -0.5964   -1.4770 C.ar      1 <0>        -0.0229
     11 C8          2.8899   -1.4882   -5.0836 C.3       1 <0>         0.0857
     12 N1          3.2864   -0.2667   -5.7968 N.3       1 <0>        -0.5283
     13 C9          2.1081    0.4780   -6.2606 C.3       1 <0>         0.0380
     14 C10         2.5541    1.8265   -6.8357 C.3       1 <0>         0.1609
     15 N2          3.5783    1.5808   -7.8624 N.pl3     1 <0>        -0.6406
     16 C11         4.7238    0.7273   -7.5123 C.3       1 <0>         0.1524
     17 C12         4.1924   -0.5779   -6.9105 C.3       1 <0>         0.0432
     18 C13         3.4650    2.1463   -9.1443 C.2       1 <0>         0.0647
     19 C14         3.9687    3.3881   -9.5477 C.2       1 <0>         0.0437
     20 N3          3.6697    3.5725  -10.8085 N.2       1 <0>        -0.2768
     21 H1          2.6176    2.3336  -12.1722 H         1 <0>         0.4413
     22 N4          2.9605    2.4583  -11.2734 N.pl3     1 <0>        -0.4687
     23 C15         2.8418    1.5748  -10.2361 C.2       1 <0>         0.1035
     24 C16         2.1711    0.2584  -10.2755 C.ar      1 <0>        -0.0502
     25 C17         2.6847   -0.7654  -11.0728 C.ar      1 <0>        -0.0632
     26 C18         2.0559   -1.9930  -11.1071 C.ar      1 <0>        -0.0737
     27 C19         0.9117   -2.2132  -10.3495 C.ar      1 <0>         0.1461
     28 C20         0.3951   -1.2009   -9.5545 C.ar      1 <0>        -0.1646
     29 C21         1.0217    0.0324   -9.5086 C.ar      1 <0>         0.1664
     30 O3          0.5194    1.0230   -8.7257 O.3       1 <0>        -0.4784
     31 O4          0.2967   -3.4248  -10.3880 O.3       1 <0>        -0.4834
     32 Cl1         2.6951   -3.2657  -12.0997 Cl        1 <0>        -0.0449
     33 H2          1.0001    2.1870    0.0043 H         1 <0>         0.1319
     34 H3         -0.5497    2.1708   -0.8711 H         1 <0>         0.1313
     35 H4         -0.5327    2.1613    0.9088 H         1 <0>         0.1330
     36 H5         -0.9378   -0.4844   -2.6614 H         1 <0>         0.1411
     37 H6          0.2407   -1.0902   -4.7367 H         1 <0>         0.1285
     38 H7          3.9520   -1.0690   -2.6355 H         1 <0>         0.1338
     39 H8          2.7745   -0.4551   -0.5619 H         1 <0>         0.1422
     40 H9          3.7781   -2.0711   -4.8398 H         1 <0>         0.0876
     41 H10         2.2292   -2.0804   -5.7167 H         1 <0>         0.0447
     42 H11         1.5962   -0.0956   -7.0332 H         1 <0>         0.0464
     43 H12         1.4311    0.6459   -5.4230 H         1 <0>         0.0776
     44 H13         1.7000    2.3337   -7.2846 H         1 <0>         0.0792
     45 H14         2.9733    2.4431   -6.0406 H         1 <0>         0.0487
     46 H15         5.3041    0.5077   -8.4085 H         1 <0>         0.0688
     47 H16         5.3515    1.2382   -6.7822 H         1 <0>         0.0589
     48 H17         5.0269   -1.1759   -6.5443 H         1 <0>         0.0784
     49 H18         3.6514   -1.1368   -7.6741 H         1 <0>         0.0326
     50 H19         4.5134    4.0797   -8.9222 H         1 <0>         0.1842
     51 H20         3.5734   -0.5967  -11.6628 H         1 <0>         0.1426
     52 H21        -0.4942   -1.3765   -8.9674 H         1 <0>         0.1486
     53 H22        -0.1286    1.5859   -9.1710 H         1 <0>         0.3936
     54 H23         0.6184   -4.0504   -9.7246 H         1 <0>         0.3987
@<TRIPOS>BOND
     1    1    2 1
     2    1   33 1
     3    1   34 1
     4    1   35 1
     5    2    3 2
     6    2    4 2
     7    2    5 1
     8    5   10 ar
     9    5    6 ar
    10    6    7 ar
    11    6   36 1
    12    7    8 ar
    13    7   37 1
    14    8    9 ar
    15    8   11 1
    16    9   10 ar
    17    9   38 1
    18   10   39 1
    19   11   12 1
    20   11   40 1
    21   11   41 1
    22   12   17 1
    23   12   13 1
    24   13   14 1
    25   13   42 1
    26   13   43 1
    27   14   15 1
    28   14   44 1
    29   14   45 1
    30   15   16 1
    31   15   18 1
    32   16   17 1
    33   16   46 1
    34   16   47 1
    35   17   48 1
    36   17   49 1
    37   18   19 1
    38   18   23 2
    39   19   20 2
    40   19   50 1
    41   20   22 1
    42   21   22 1
    43   22   23 1
    44   23   24 1
    45   24   29 ar
    46   24   25 ar
    47   25   26 ar
    48   25   51 1
    49   26   27 ar
    50   26   32 1
    51   27   28 ar
    52   27   31 1
    53   28   29 ar
    54   28   52 1
    55   29   30 1
    56   30   53 1
    57   31   54 1
@<TRIPOS>MOLECULE
CHEMBL379544
   38    41     0     0     0
SMALL
USER_CHARGES

@<TRIPOS>ATOM
      1 C1         -0.0167    1.3827    0.0096 C.ar      1 <0>        -0.1008
      2 C2          1.1420    2.1150    0.0025 C.ar      1 <0>        -0.0477
      3 C3          2.4024    1.4739   -0.0129 C.ar      1 <0>         0.0923
      4 C4          2.3838    0.0606   -0.0203 C.ar      1 <0>        -0.1474
      5 C5          1.2184   -0.6652   -0.0128 C.ar      1 <0>         0.0126
      6 C6          0.0021   -0.0041    0.0020 C.ar      1 <0>        -0.0790
      7 Cl1         1.2696   -2.4004   -0.0225 Cl        1 <0>        -0.0493
      8 S1          4.1144   -0.3409   -0.0383 S.3       1 <0>         0.0904
      9 C7          4.7340    1.3355   -0.0350 C.2       1 <0>         0.0837
     10 N1          3.6271    2.0432   -0.0211 N.2       1 <0>        -0.4423
     11 S2          6.4043    1.8964   -0.0469 S.3       1 <0>         0.2765
     12 C8          6.2642    3.6528   -0.0365 C.2       1 <0>         0.2005
     13 N2          5.1365    4.3189   -0.0174 N.2       1 <0>        -0.3965
     14 C9          5.3992    5.6493   -0.0147 C.ar      1 <0>        -0.1078
     15 C10         4.6075    6.8096    0.0016 C.ar      1 <0>         0.5167
     16 N3          5.2153    7.9915   -0.0017 N.ar      1 <0>        -0.5920
     17 C11         6.5326    8.0827   -0.0199 C.ar      1 <0>         0.3719
     18 N4          7.3137    7.0228   -0.0356 N.ar      1 <0>        -0.5591
     19 C12         6.7954    5.7994   -0.0337 C.ar      1 <0>         0.3204
     20 N5          7.3172    4.5267   -0.0413 N.pl3     1 <0>        -0.4487
     21 C13         8.7385    4.1721   -0.0557 C.3       1 <0>         0.1104
     22 C14         9.2207    4.0568   -1.5031 C.3       1 <0>        -0.1406
     23 C15        10.7052    3.6865   -1.5182 C.3       1 <0>         0.0818
     24 O1         11.1555    3.5788   -2.8701 O.3       1 <0>        -0.5716
     25 N6          3.2248    6.7239    0.0202 N.pl3     1 <0>        -0.8142
     26 H1         -0.9661    1.8974    0.0260 H         1 <0>         0.1473
     27 H2          1.0918    3.1938    0.0084 H         1 <0>         0.1408
     28 H3         -0.9224   -0.5624    0.0084 H         1 <0>         0.1516
     29 H4          6.9860    9.0629   -0.0223 H         1 <0>         0.2078
     30 H5          9.3110    4.9448    0.4575 H         1 <0>         0.1095
     31 H6          8.8801    3.2178    0.4516 H         1 <0>         0.0990
     32 H7          8.6483    3.2841   -2.0163 H         1 <0>         0.0803
     33 H8          9.0792    5.0111   -2.0104 H         1 <0>         0.0828
     34 H9         11.2776    4.4591   -1.0050 H         1 <0>         0.0524
     35 H10        10.8467    2.7321   -1.0109 H         1 <0>         0.0517
     36 H11        12.0901    3.3459   -2.9559 H         1 <0>         0.3854
     37 H12         2.7927    5.8554    0.0221 H         1 <0>         0.4197
     38 H13         2.6889    7.5323    0.0314 H         1 <0>         0.4114
@<TRIPOS>BOND
     1    1    6 ar
     2    1    2 ar
     3    1   26 1
     4    2    3 ar
     5    2   27 1
     6    3   10 1
     7    3    4 ar
     8    4    5 ar
     9    4    8 1
    10    5    6 ar
    11    5    7 1
    12    6   28 1
    13    8    9 1
    14    9   10 2
    15    9   11 1
    16   11   12 1
    17   12   20 1
    18   12   13 2
    19   13   14 1
    20   14   19 ar
    21   14   15 ar
    22   15   16 ar
    23   15   25 1
    24   16   17 ar
    25   17   18 ar
    26   17   29 1
    27   18   19 ar
    28   19   20 1
    29   20   21 1
    30   21   22 1
    31   21   30 1
    32   21   31 1
    33   22   23 1
    34   22   32 1
    35   22   33 1
    36   23   24 1
    37   23   34 1
    38   23   35 1
    39   24   36 1
    40   25   37 1
    41   25   38 1
@<TRIPOS>MOLECULE
CHEMBL209522
   35    38     0     0     0
SMALL
USER_CHARGES

@<TRIPOS>ATOM
      1 C1         -0.0167    1.3827    0.0096 C.ar      1 <0>        -0.1008
      2 C2          1.1420    2.1150    0.0025 C.ar      1 <0>        -0.0476
      3 C3          2.4024    1.4739   -0.0129 C.ar      1 <0>         0.0920
      4 C4          2.3838    0.0606   -0.0203 C.ar      1 <0>        -0.1473
      5 C5          1.2184   -0.6652   -0.0128 C.ar      1 <0>         0.0125
      6 C6          0.0021   -0.0041    0.0020 C.ar      1 <0>        -0.0787
      7 Cl1         1.2696   -2.4004   -0.0225 Cl        1 <0>        -0.0490
      8 S1          4.1144   -0.3409   -0.0383 S.3       1 <0>         0.0917
      9 C7          4.7340    1.3355   -0.0350 C.2       1 <0>         0.0825
     10 N1          3.6271    2.0432   -0.0211 N.2       1 <0>        -0.4424
     11 S2          6.4043    1.8964   -0.0469 S.3       1 <0>         0.2788
     12 C8          6.2642    3.6528   -0.0365 C.2       1 <0>         0.2000
     13 N2          5.1365    4.3189   -0.0174 N.2       1 <0>        -0.3945
     14 C9          5.3992    5.6493   -0.0147 C.ar      1 <0>        -0.1075
     15 C10         4.6075    6.8096    0.0016 C.ar      1 <0>         0.5172
     16 N3          5.2153    7.9915   -0.0017 N.ar      1 <0>        -0.5913
     17 C11         6.5326    8.0827   -0.0199 C.ar      1 <0>         0.3731
     18 N4          7.3137    7.0228   -0.0356 N.ar      1 <0>        -0.5590
     19 C12         6.7954    5.7994   -0.0337 C.ar      1 <0>         0.3202
     20 N5          7.3172    4.5267   -0.0413 N.pl3     1 <0>        -0.4483
     21 C13         8.7385    4.1721   -0.0557 C.3       1 <0>         0.1075
     22 C14         9.2207    4.0568   -1.5031 C.3       1 <0>         0.0629
     23 O1         10.6072    3.7109   -1.5172 O.3       1 <0>        -0.5644
     24 N6          3.2248    6.7239    0.0202 N.pl3     1 <0>        -0.8136
     25 H1         -0.9661    1.8974    0.0260 H         1 <0>         0.1473
     26 H2          1.0918    3.1938    0.0084 H         1 <0>         0.1408
     27 H3         -0.9224   -0.5624    0.0084 H         1 <0>         0.1517
     28 H4          6.9860    9.0629   -0.0223 H         1 <0>         0.2086
     29 H5          9.3110    4.9448    0.4575 H         1 <0>         0.1152
     30 H6          8.8801    3.2178    0.4516 H         1 <0>         0.1054
     31 H7          8.6483    3.2841   -2.0163 H         1 <0>         0.0555
     32 H8          9.0792    5.0111   -2.0104 H         1 <0>         0.0579
     33 H9         10.9811    3.6207   -2.4044 H         1 <0>         0.3920
     34 H10         2.7927    5.8554    0.0221 H         1 <0>         0.4199
     35 H11         2.6889    7.5323    0.0314 H         1 <0>         0.4118
@<TRIPOS>BOND
     1    1    6 ar
     2    1    2 ar
     3    1   25 1
     4    2    3 ar
     5    2   26 1
     6    3   10 1
     7    3    4 ar
     8    4    5 ar
     9    4    8 1
    10    5    6 ar
    11    5    7 1
    12    6   27 1
    13    8    9 1
    14    9   10 2
    15    9   11 1
    16   11   12 1
    17   12   20 1
    18   12   13 2
    19   13   14 1
    20   14   19 ar
    21   14   15 ar
    22   15   16 ar
    23   15   24 1
    24   16   17 ar
    25   17   18 ar
    26   17   28 1
    27   18   19 ar
    28   19   20 1
    29   20   21 1
    30   21   22 1
    31   21   29 1
    32   21   30 1
    33   22   23 1
    34   22   31 1
    35   22   32 1
    36   23   33 1
    37   24   34 1
    38   24   35 1
@<TRIPOS>MOLECULE
CHEMBL511618
   79    80     0     0     0
SMALL
USER_CHARGES

@<TRIPOS>ATOM
      1 C1         -0.4530    2.0156   -1.6510 C.3       1 <0>        -0.1426
      2 C2         -0.5171    0.5254   -1.3024 C.3       1 <0>        -0.1035
      3 H1          0.0877   -0.0387   -2.0077 H         1 <0>         0.0959
      4 C3         -1.9746    0.0515   -1.4034 C.3       1 <0>        -0.0777
      5 C4         -2.3121   -0.1831   -2.8536 C.ar      1 <0>        -0.0580
      6 C5         -1.4881   -0.9999   -3.6088 C.ar      1 <0>        -0.1293
      7 C6         -1.7805   -1.2461   -4.9418 C.ar      1 <0>         0.1748
      8 C7         -2.8960   -0.6651   -5.5255 C.ar      1 <0>        -0.1415
      9 C8         -3.7159    0.1558   -4.7726 C.ar      1 <0>        -0.0306
     10 C9         -3.4250    0.3992   -3.4342 C.ar      1 <0>         0.0934
     11 O1         -4.2364    1.2084   -2.7022 O.3       1 <0>        -0.4804
     12 Cl1        -5.1147    0.8844   -5.4992 Cl        1 <0>        -0.0505
     13 N1         -0.9388   -2.0967   -5.6886 N.am      1 <0>        -0.6815
     14 C10        -0.0815   -2.8692   -5.0021 C.2       1 <0>         0.5598
     15 O2         -0.4110   -3.2950   -3.9128 O.2       1 <0>        -0.5072
     16 C11         1.2618   -3.2324   -5.4612 C.2       1 <0>        -0.1940
     17 C12         2.0541   -3.8734   -4.6047 C.2       1 <0>        -0.0639
     18 C13         3.4584   -4.2780   -4.9575 C.3       1 <0>        -0.1007
     19 C14         4.1861   -4.6908   -3.6713 C.3       1 <0>        -0.1414
     20 C15         4.5348   -3.4382   -2.8655 C.3       1 <0>         0.0972
     21 H2          3.7366   -2.7052   -2.9757 H         1 <0>         0.0856
     22 C16         4.7016   -3.7958   -1.3883 C.3       1 <0>         0.1440
     23 H3          3.8927   -4.4601   -1.0798 H         1 <0>         0.0972
     24 C17         4.6526   -2.5321   -0.5579 C.2       1 <0>        -0.1501
     25 C18         3.5905   -2.2890    0.1654 C.2       1 <0>        -0.1203
     26 C19         3.4487   -1.0665    1.0298 C.3       1 <0>        -0.0836
     27 H4          3.9383   -0.2083    0.5771 H         1 <0>         0.0934
     28 C20         1.9598   -0.7485    1.2138 C.3       1 <0>         0.0812
     29 H5          1.3774   -1.6608    1.0920 H         1 <0>         0.0564
     30 C21         1.5191    0.2824    0.1703 C.3       1 <0>         0.1016
     31 H6          1.8938    1.2666    0.4630 H         1 <0>         0.1099
     32 C22        -0.0072    0.3163    0.1200 C.3       1 <0>        -0.1426
     33 O3          2.0591   -0.0692   -1.1021 O.3       1 <0>        -0.3578
     34 C23         1.5885   -1.3202   -1.6077 C.3       1 <0>        -0.0070
     35 O4          1.7489   -0.2181    2.5240 O.3       1 <0>        -0.5598
     36 C24         4.0632   -1.3391    2.4075 C.3       1 <0>        -0.1517
     37 C25         5.8304   -1.5941   -0.5784 C.3       1 <0>        -0.1060
     38 O5          5.9571   -4.4479   -1.1877 O.3       1 <0>        -0.3344
     39 C26         6.0263   -5.3460   -0.1870 C.2       1 <0>         0.6459
     40 O6          5.0475   -5.5698    0.4973 O.2       1 <0>        -0.5728
     41 N2          7.1814   -5.9966    0.0558 N.am      1 <0>        -0.8263
     42 O7          5.7552   -2.8908   -3.3706 O.3       1 <0>        -0.3602
     43 C27         5.5903   -1.6639   -4.0844 C.3       1 <0>         0.0235
     44 C28         1.7277   -2.9004   -6.8494 C.3       1 <0>        -0.1133
     45 H7          0.5666    2.3767   -1.5161 H         1 <0>         0.0593
     46 H8         -0.7552    2.1594   -2.6883 H         1 <0>         0.0499
     47 H9         -1.1247    2.5711   -0.9965 H         1 <0>         0.0537
     48 H10        -2.0902   -0.8798   -0.8457 H         1 <0>         0.0808
     49 H11        -2.6318    0.8107   -0.9822 H         1 <0>         0.0847
     50 H12        -0.6076   -1.4268   -3.1506 H         1 <0>         0.1451
     51 H13        -3.1206   -0.8562   -6.5642 H         1 <0>         0.1407
     52 H14        -3.9838    2.1416   -2.7233 H         1 <0>         0.3888
     53 H15        -0.9901   -2.1218   -6.6653 H         1 <0>         0.4204
     54 H16         1.6719   -4.1126   -3.6188 H         1 <0>         0.1297
     55 H17         3.4395   -5.1194   -5.6485 H         1 <0>         0.0946
     56 H18         3.9878   -3.4397   -5.4094 H         1 <0>         0.0868
     57 H19         3.5385   -5.3363   -3.0799 H         1 <0>         0.0775
     58 H20         5.1012   -5.2232   -3.9286 H         1 <0>         0.0877
     59 H21         2.7727   -3.0076    0.1404 H         1 <0>         0.1076
     60 H22        -0.3702    1.1307    0.7531 H         1 <0>         0.0794
     61 H23        -0.4014   -0.6263    0.5077 H         1 <0>         0.0650
     62 H24         1.8122   -1.3892   -2.6723 H         1 <0>         0.0741
     63 H25         2.0832   -2.1350   -1.0790 H         1 <0>         0.0600
     64 H26         0.5113   -1.3908   -1.4574 H         1 <0>         0.0613
     65 H27         2.0044   -0.8189    3.2374 H         1 <0>         0.3816
     66 H28         5.1196   -1.5817    2.2925 H         1 <0>         0.0612
     67 H29         3.9600   -0.4526    3.0332 H         1 <0>         0.0701
     68 H30         3.5470   -2.1768    2.8763 H         1 <0>         0.0561
     69 H31         5.6987   -0.8630   -1.3760 H         1 <0>         0.0669
     70 H32         5.9008   -1.0783    0.3792 H         1 <0>         0.0598
     71 H33         6.7441   -2.1620   -0.7533 H         1 <0>         0.0688
     72 H34         7.9628   -5.8180   -0.4905 H         1 <0>         0.4092
     73 H35         7.2313   -6.6436    0.7767 H         1 <0>         0.4254
     74 H36         6.5579   -1.3273   -4.4567 H         1 <0>         0.0875
     75 H37         4.9125   -1.8200   -4.9236 H         1 <0>         0.0397
     76 H38         5.1749   -0.9085   -3.4174 H         1 <0>         0.0455
     77 H39         0.9318   -2.3839   -7.3859 H         1 <0>         0.0618
     78 H40         2.6056   -2.2567   -6.7939 H         1 <0>         0.0738
     79 H41         1.9839   -3.8196   -7.3763 H         1 <0>         0.0748
@<TRIPOS>BOND
     1    1    2 1
     2    1   45 1
     3    1   46 1
     4    1   47 1
     5    2    3 1
     6    2   32 1
     7    2    4 1
     8    4    5 1
     9    4   48 1
    10    4   49 1
    11    5   10 ar
    12    5    6 ar
    13    6    7 ar
    14    6   50 1
    15    7    8 ar
    16    7   13 1
    17    8    9 ar
    18    8   51 1
    19    9   10 ar
    20    9   12 1
    21   10   11 1
    22   11   52 1
    23   13   14 am
    24   13   53 1
    25   14   15 2
    26   14   16 1
    27   16   17 2
    28   16   44 1
    29   17   18 1
    30   17   54 1
    31   18   19 1
    32   18   55 1
    33   18   56 1
    34   19   20 1
    35   19   57 1
    36   19   58 1
    37   20   21 1
    38   20   22 1
    39   20   42 1
    40   22   23 1
    41   22   24 1
    42   22   38 1
    43   24   25 2
    44   24   37 1
    45   25   26 1
    46   25   59 1
    47   26   27 1
    48   26   28 1
    49   26   36 1
    50   28   29 1
    51   28   30 1
    52   28   35 1
    53   30   31 1
    54   30   32 1
    55   30   33 1
    56   32   60 1
    57   32   61 1
    58   33   34 1
    59   34   62 1
    60   34   63 1
    61   34   64 1
    62   35   65 1
    63   36   66 1
    64   36   67 1
    65   36   68 1
    66   37   69 1
    67   37   70 1
    68   37   71 1
    69   38   39 1
    70   39   40 2
    71   39   41 am
    72   41   72 1
    73   41   73 1
    74   42   43 1
    75   43   74 1
    76   43   75 1
    77   43   76 1
    78   44   77 1
    79   44   78 1
    80   44   79 1
@<TRIPOS>MOLECULE
CHEMBL386499
   43    46     0     0     0
SMALL
USER_CHARGES

@<TRIPOS>ATOM
      1 C1         -0.0187    1.5258    0.0104 C.3       1 <0>        -0.1531
      2 C2          0.0021   -0.0041    0.0020 C.3       1 <0>        -0.1197
      3 C3          0.7182   -0.4975   -1.2568 C.3       1 <0>        -0.1379
      4 C4          0.7390   -2.0273   -1.2652 C.3       1 <0>         0.1057
      5 N1          1.4247   -2.4998   -2.4705 N.pl3     1 <0>        -0.4488
      6 C5          0.8415   -2.7672   -3.6872 C.ar      1 <0>         0.3189
      7 C6          1.8796   -3.1904   -4.5336 C.ar      1 <0>        -0.1086
      8 C7          1.5581   -3.5332   -5.8571 C.ar      1 <0>         0.5157
      9 N2          0.2902   -3.4413   -6.2454 N.ar      1 <0>        -0.5927
     10 C8         -0.6520   -3.0381   -5.4130 C.ar      1 <0>         0.3698
     11 N3         -0.3967   -2.7064   -4.1644 N.ar      1 <0>        -0.5589
     12 N4          2.5400   -3.9570   -6.7379 N.pl3     1 <0>        -0.8148
     13 N5          3.0264   -3.1628   -3.8102 N.2       1 <0>        -0.3983
     14 C9          2.7642   -2.7505   -2.5948 C.2       1 <0>         0.2017
     15 S1          3.9558   -2.5537   -1.3119 S.3       1 <0>         0.2695
     16 C10         5.4768   -3.0235   -2.0671 C.2       1 <0>         0.0818
     17 N6          5.6961   -3.4236   -3.2992 N.2       1 <0>        -0.4419
     18 C11         6.9269   -3.7546   -3.7460 C.ar      1 <0>         0.0793
     19 C12         7.2969   -4.1970   -5.0372 C.ar      1 <0>        -0.0578
     20 C13         8.6027   -4.4949   -5.3278 C.ar      1 <0>        -0.1079
     21 C14         9.6032   -4.3744   -4.3743 C.ar      1 <0>        -0.0914
     22 C15         9.2771   -3.9440   -3.1011 C.ar      1 <0>        -0.0342
     23 C16         7.9720   -3.6438   -2.8009 C.ar      1 <0>        -0.1405
     24 S2          7.1151   -3.0696   -1.3543 S.3       1 <0>         0.0571
     25 C17        10.3479   -3.8064   -2.0497 C.3       1 <0>        -0.1188
     26 H1          1.0039    1.9031    0.0027 H         1 <0>         0.0557
     27 H2         -0.5459    1.8868   -0.8726 H         1 <0>         0.0551
     28 H3         -0.5289    1.8773    0.9072 H         1 <0>         0.0588
     29 H4          0.5293   -0.3651    0.8851 H         1 <0>         0.0674
     30 H5         -1.0205   -0.3814    0.0098 H         1 <0>         0.0680
     31 H6          0.1910   -0.1364   -2.1398 H         1 <0>         0.0744
     32 H7          1.7408   -0.1202   -1.2645 H         1 <0>         0.0720
     33 H8          1.2661   -2.3884   -0.3821 H         1 <0>         0.0962
     34 H9         -0.2836   -2.4046   -1.2575 H         1 <0>         0.1061
     35 H10        -1.6696   -2.9773   -5.7696 H         1 <0>         0.2069
     36 H11         3.4619   -4.0197   -6.4428 H         1 <0>         0.4197
     37 H12         2.3056   -4.1910   -7.6496 H         1 <0>         0.4109
     38 H13         6.5422   -4.3016   -5.8027 H         1 <0>         0.1331
     39 H14         8.8586   -4.8315   -6.3216 H         1 <0>         0.1367
     40 H15        10.6262   -4.6146   -4.6236 H         1 <0>         0.1407
     41 H16        10.7643   -2.7997   -2.0848 H         1 <0>         0.0787
     42 H17         9.9159   -3.9868   -1.0653 H         1 <0>         0.0674
     43 H18        11.1380   -4.5332   -2.2385 H         1 <0>         0.0776
@<TRIPOS>BOND
     1    1    2 1
     2    1   26 1
     3    1   27 1
     4    1   28 1
     5    2    3 1
     6    2   29 1
     7    2   30 1
     8    3    4 1
     9    3   31 1
    10    3   32 1
    11    4    5 1
    12    4   33 1
    13    4   34 1
    14    5   14 1
    15    5    6 1
    16    6   11 ar
    17    6    7 ar
    18    7    8 ar
    19    7   13 1
    20    8    9 ar
    21    8   12 1
    22    9   10 ar
    23   10   11 ar
    24   10   35 1
    25   12   36 1
    26   12   37 1
    27   13   14 2
    28   14   15 1
    29   15   16 1
    30   16   24 1
    31   16   17 2
    32   17   18 1
    33   18   23 ar
    34   18   19 ar
    35   19   20 ar
    36   19   38 1
    37   20   21 ar
    38   20   39 1
    39   21   22 ar
    40   21   40 1
    41   22   23 ar
    42   22   25 1
    43   23   24 1
    44   25   41 1
    45   25   42 1
    46   25   43 1
@<TRIPOS>MOLECULE
CHEMBL453386
   42    44     0     0     0
SMALL
USER_CHARGES

@<TRIPOS>ATOM
      1 C1         -0.0187    1.5258    0.0104 C.3       1 <0>        -0.1525
      2 C2          0.0021   -0.0041    0.0020 C.3       1 <0>         0.1089
      3 H1          0.5129   -0.3514   -0.8960 H         1 <0>         0.0842
      4 C3         -1.4373   -0.5286   -0.0010 C.3       1 <0>        -0.2166
      5 C4         -1.9264   -0.6375   -1.4422 C.3       1 <0>        -0.0002
      6 H2         -1.2035   -1.0690   -2.1407 H         1 <0>         0.1220
      7 C5         -3.4103   -0.8994   -1.7048 C.3       1 <0>         0.0222
      8 H3         -3.6833   -1.5122   -2.5707 H         1 <0>         0.1349
      9 O1         -2.8057    0.3707   -1.9481 O.3       1 <0>        -0.3443
     10 C6         -4.3511   -1.0048   -0.5321 C.2       1 <0>        -0.1345
     11 C7         -4.0802   -1.8171    0.4944 C.2       1 <0>        -0.1054
     12 C8         -2.8804   -2.6428    0.5050 C.2       1 <0>        -0.0868
     13 C9         -2.3453   -3.0589    1.6806 C.2       1 <0>        -0.1445
     14 C10        -1.1909   -3.8610    1.6669 C.2       1 <0>         0.4154
     15 O2         -0.8000   -4.3338    0.6186 O.2       1 <0>        -0.4925
     16 C11        -0.4332   -4.1408    2.9402 C.3       1 <0>        -0.1389
     17 C12         1.0278   -3.8392    2.6877 C.ar      1 <0>         0.0371
     18 C13         1.3859   -2.6361    2.0676 C.ar      1 <0>        -0.1817
     19 C14         2.7381   -2.3583    1.8197 C.ar      1 <0>         0.2049
     20 C15         3.7092   -3.2743    2.1947 C.ar      1 <0>        -0.1821
     21 C16         3.3405   -4.4580    2.8160 C.ar      1 <0>         0.1881
     22 C17         2.0001   -4.7347    3.0629 C.ar      1 <0>        -0.0881
     23 Cl1         1.5537   -6.2169    3.8488 Cl        1 <0>        -0.0319
     24 O3          4.2931   -5.3515    3.1851 O.3       1 <0>        -0.4788
     25 O4          3.0947   -1.1972    1.2155 O.3       1 <0>        -0.4738
     26 C18         0.3563   -1.6642    1.6693 C.2       1 <0>         0.5177
     27 O5         -0.8194   -1.9401    1.8074 O.2       1 <0>        -0.4404
     28 O6          0.7045   -0.4714    1.1533 O.3       1 <0>        -0.3395
     29 H4          1.0039    1.9031    0.0027 H         1 <0>         0.0687
     30 H5         -0.5459    1.8868   -0.8726 H         1 <0>         0.0816
     31 H6         -0.5289    1.8773    0.9072 H         1 <0>         0.0655
     32 H7         -1.4681   -1.5113    0.4694 H         1 <0>         0.1770
     33 H8         -2.0774    0.1605    0.5499 H         1 <0>         0.0857
     34 H9         -5.2668   -0.4226   -0.5176 H         1 <0>         0.1291
     35 H10        -4.7603   -1.8650    1.3375 H         1 <0>         0.1284
     36 H11        -2.4083   -2.9241   -0.4301 H         1 <0>         0.1276
     37 H12        -2.7973   -2.7787    2.6253 H         1 <0>         0.1321
     38 H13        -0.8085   -3.5029    3.7404 H         1 <0>         0.1168
     39 H14        -0.5511   -5.1885    3.2168 H         1 <0>         0.1157
     40 H15         4.7515   -3.0662    2.0028 H         1 <0>         0.1582
     41 H16         4.6331   -5.2167    4.0803 H         1 <0>         0.4045
     42 H17         3.2625   -0.4695    1.8298 H         1 <0>         0.4059
@<TRIPOS>BOND
     1    1    2 1
     2    1   29 1
     3    1   30 1
     4    1   31 1
     5    2    3 1
     6    2   28 1
     7    2    4 1
     8    4    5 1
     9    4   32 1
    10    4   33 1
    11    5    6 1
    12    5    9 1
    13    5    7 1
    14    7    8 1
    15    7    9 1
    16    7   10 1
    17   10   11 2
    18   10   34 1
    19   11   12 1
    20   11   35 1
    21   12   13 2
    22   12   36 1
    23   13   14 1
    24   13   37 1
    25   14   15 2
    26   14   16 1
    27   16   17 1
    28   16   38 1
    29   16   39 1
    30   17   22 ar
    31   17   18 ar
    32   18   19 ar
    33   18   26 1
    34   19   20 ar
    35   19   25 1
    36   20   21 ar
    37   20   40 1
    38   21   22 ar
    39   21   24 1
    40   22   23 1
    41   24   41 1
    42   25   42 1
    43   26   27 2
    44   26   28 1
@<TRIPOS>MOLECULE
CHEMBL469932
   78    79     0     0     0
SMALL
USER_CHARGES

@<TRIPOS>ATOM
      1 C1         -1.6073    0.6697   -1.8860 C.3       1 <0>        -0.1443
      2 C2         -0.8367   -0.4670   -1.2115 C.3       1 <0>        -0.0879
      3 H1         -0.0924   -0.8573   -1.9006 H         1 <0>         0.0940
      4 C3         -1.8167   -1.5920   -0.8531 C.3       1 <0>        -0.0791
      5 C4         -2.0287   -2.4600   -2.0715 C.ar      1 <0>        -0.0499
      6 C5         -3.2974   -2.7272   -2.5391 C.ar      1 <0>        -0.1438
      7 C6         -3.4706   -3.5232   -3.6595 C.ar      1 <0>        -0.0896
      8 C7         -2.3706   -4.0552   -4.3081 C.ar      1 <0>        -0.1639
      9 C8         -1.0947   -3.7919   -3.8364 C.ar      1 <0>         0.1648
     10 C9         -0.9269   -2.9890   -2.7154 C.ar      1 <0>        -0.1402
     11 N1          0.0425   -4.2967   -4.4926 N.am      1 <0>        -0.6839
     12 C10         1.2146   -4.2708   -3.8281 C.2       1 <0>         0.5595
     13 O1          1.2232   -4.3807   -2.6174 O.2       1 <0>        -0.5064
     14 C11         2.5161   -4.0995   -4.4889 C.2       1 <0>        -0.1947
     15 C12         3.5890   -3.9722   -3.7100 C.2       1 <0>        -0.0645
     16 C13         4.9719   -3.7818   -4.2706 C.3       1 <0>        -0.0980
     17 C14         5.9007   -3.3165   -3.1405 C.3       1 <0>        -0.1396
     18 C15         5.5959   -1.8522   -2.8093 C.3       1 <0>         0.0986
     19 H2          4.5249   -1.6730   -2.9017 H         1 <0>         0.0895
     20 C16         6.0464   -1.5531   -1.3768 C.3       1 <0>         0.1440
     21 H3          5.7814   -2.3873   -0.7268 H         1 <0>         0.0983
     22 C17         5.3514   -0.3014   -0.8923 C.2       1 <0>        -0.1557
     23 C18         4.3342   -0.4086   -0.0820 C.2       1 <0>        -0.1088
     24 C19         3.5831    0.7753    0.4584 C.3       1 <0>        -0.0831
     25 H4          3.5058    1.5586   -0.2913 H         1 <0>         0.0816
     26 C20         2.1719    0.3393    0.8663 C.3       1 <0>         0.1007
     27 H5          2.1589   -0.7369    1.0289 H         1 <0>         0.0645
     28 C21         1.1831    0.7016   -0.2453 C.3       1 <0>         0.1011
     29 H6          1.0692    1.7877   -0.2766 H         1 <0>         0.0680
     30 C22        -0.1715    0.0582    0.0582 C.3       1 <0>        -0.1195
     31 O2          1.6933    0.2444   -1.4958 O.3       1 <0>        -0.3622
     32 C23         1.8799    1.2810   -2.4614 C.3       1 <0>         0.0289
     33 O3          1.7993    1.0106    2.0709 O.3       1 <0>        -0.5627
     34 C24         4.3012    1.3169    1.6990 C.3       1 <0>        -0.1516
     35 C25         5.8615    1.0393   -1.3585 C.3       1 <0>        -0.1066
     36 O4          7.4610   -1.3546   -1.3462 O.3       1 <0>        -0.3350
     37 C26         8.1012   -1.6924   -0.2110 C.2       1 <0>         0.6454
     38 O5          7.4757   -2.1434    0.7281 O.2       1 <0>        -0.5725
     39 N2          9.4358   -1.5303   -0.1162 N.am      1 <0>        -0.8270
     40 O6          6.3007   -1.0079   -3.7227 O.3       1 <0>        -0.3607
     41 C27         5.4540   -0.2935   -4.6253 C.3       1 <0>         0.0260
     42 C28         2.6350   -4.0752   -5.9873 C.3       1 <0>        -0.1109
     43 H7         -0.9375    1.5130   -2.0544 H         1 <0>         0.0490
     44 H8         -2.0032    0.3238   -2.8408 H         1 <0>         0.0531
     45 H9         -2.4303    0.9822   -1.2432 H         1 <0>         0.0527
     46 H10        -1.4032   -2.1919   -0.0422 H         1 <0>         0.0770
     47 H11        -2.7667   -1.1583   -0.5411 H         1 <0>         0.0714
     48 H12        -4.1571   -2.3151   -2.0319 H         1 <0>         0.1208
     49 H13        -4.4657   -3.7269   -4.0271 H         1 <0>         0.1252
     50 H14        -2.5038   -4.6761   -5.1824 H         1 <0>         0.1224
     51 H15         0.0601   -2.7600   -2.3434 H         1 <0>         0.1389
     52 H16        -0.0291   -4.6621   -5.3984 H         1 <0>         0.4159
     53 H17         3.4518   -4.0029   -2.6338 H         1 <0>         0.1302
     54 H18         5.3390   -4.7256   -4.6730 H         1 <0>         0.0921
     55 H19         4.9623   -3.0253   -5.0544 H         1 <0>         0.0845
     56 H20         5.7375   -3.9334   -2.2585 H         1 <0>         0.0782
     57 H21         6.9375   -3.4053   -3.4660 H         1 <0>         0.0854
     58 H22         4.0139   -1.4088    0.2157 H         1 <0>         0.1065
     59 H23        -0.8248    0.8043    0.5213 H         1 <0>         0.0706
     60 H24        -0.0337   -0.7658    0.7618 H         1 <0>         0.0688
     61 H25         2.6315    1.9830   -2.1003 H         1 <0>         0.0401
     62 H26         2.2129    0.8447   -3.4032 H         1 <0>         0.0825
     63 H27         0.9376    1.8062   -2.6174 H         1 <0>         0.0448
     64 H28         2.3833    0.8282    2.8197 H         1 <0>         0.3827
     65 H29         5.3124    1.6218    1.4294 H         1 <0>         0.0599
     66 H30         3.7547    2.1756    2.0892 H         1 <0>         0.0695
     67 H31         4.3473    0.5388    2.4608 H         1 <0>         0.0577
     68 H32         5.3501    1.3228   -2.2784 H         1 <0>         0.0626
     69 H33         5.6692    1.7884   -0.5903 H         1 <0>         0.0585
     70 H34         6.9337    0.9758   -1.5437 H         1 <0>         0.0682
     71 H35         9.9351   -1.1703   -0.8659 H         1 <0>         0.4088
     72 H36         9.8971   -1.7736    0.7017 H         1 <0>         0.4251
     73 H37         6.0633    0.3355   -5.2743 H         1 <0>         0.0863
     74 H38         4.8895   -1.0018   -5.2317 H         1 <0>         0.0396
     75 H39         4.7632    0.3308   -4.0585 H         1 <0>         0.0418
     76 H40         1.6477   -4.1995   -6.4321 H         1 <0>         0.0607
     77 H41         3.0582   -3.1216   -6.3027 H         1 <0>         0.0719
     78 H42         3.2852   -4.8870   -6.3134 H         1 <0>         0.0731
@<TRIPOS>BOND
     1    1    2 1
     2    1   43 1
     3    1   44 1
     4    1   45 1
     5    2    3 1
     6    2   30 1
     7    2    4 1
     8    4    5 1
     9    4   46 1
    10    4   47 1
    11    5   10 ar
    12    5    6 ar
    13    6    7 ar
    14    6   48 1
    15    7    8 ar
    16    7   49 1
    17    8    9 ar
    18    8   50 1
    19    9   10 ar
    20    9   11 1
    21   10   51 1
    22   11   12 am
    23   11   52 1
    24   12   13 2
    25   12   14 1
    26   14   15 2
    27   14   42 1
    28   15   16 1
    29   15   53 1
    30   16   17 1
    31   16   54 1
    32   16   55 1
    33   17   18 1
    34   17   56 1
    35   17   57 1
    36   18   19 1
    37   18   20 1
    38   18   40 1
    39   20   21 1
    40   20   22 1
    41   20   36 1
    42   22   23 2
    43   22   35 1
    44   23   24 1
    45   23   58 1
    46   24   25 1
    47   24   26 1
    48   24   34 1
    49   26   27 1
    50   26   28 1
    51   26   33 1
    52   28   29 1
    53   28   30 1
    54   28   31 1
    55   30   59 1
    56   30   60 1
    57   31   32 1
    58   32   61 1
    59   32   62 1
    60   32   63 1
    61   33   64 1
    62   34   65 1
    63   34   66 1
    64   34   67 1
    65   35   68 1
    66   35   69 1
    67   35   70 1
    68   36   37 1
    69   37   38 2
    70   37   39 am
    71   39   71 1
    72   39   72 1
    73   40   41 1
    74   41   73 1
    75   41   74 1
    76   41   75 1
    77   42   76 1
    78   42   77 1
    79   42   78 1
@<TRIPOS>MOLECULE
CHEMBL512489
   79    80     0     0     0
SMALL
USER_CHARGES

@<TRIPOS>ATOM
      1 C1         -0.2162    1.1216   -0.1907 C.3       1 <0>        -0.1405
      2 C2         -0.2087   -0.3864    0.0303 C.3       1 <0>        -0.0619
      3 H1          0.2345   -0.8437   -0.8740 H         1 <0>         0.0573
      4 C3         -1.6135   -0.9589    0.1900 C.3       1 <0>        -0.0622
      5 C4         -2.6255   -0.1102   -0.5417 C.ar      1 <0>        -0.0687
      6 C5         -3.2683    0.9190    0.1172 C.ar      1 <0>        -0.0947
      7 C6         -4.1780    1.7243   -0.5518 C.ar      1 <0>         0.1407
      8 C7         -4.4840    1.4572   -1.8765 C.ar      1 <0>        -0.1402
      9 C8         -3.8545    0.4144   -2.5367 C.ar      1 <0>        -0.1247
     10 C9         -2.9194   -0.3697   -1.8707 C.ar      1 <0>         0.0827
     11 O1         -2.2952   -1.3886   -2.5192 O.3       1 <0>        -0.4931
     12 N1         -4.7259    2.8399    0.1147 N.am      1 <0>        -0.6794
     13 C10        -3.9585    3.3744    1.0922 C.2       1 <0>         0.5465
     14 O2         -2.7558    3.1615    1.0688 O.2       1 <0>        -0.5000
     15 C11        -4.4769    4.1811    2.2004 C.2       1 <0>        -0.1867
     16 C12        -3.6017    4.6372    3.0982 C.2       1 <0>        -0.0696
     17 C13        -4.0047    5.4671    4.2880 C.3       1 <0>        -0.1019
     18 C14        -2.7537    5.6598    5.1658 C.3       1 <0>        -0.1508
     19 C15        -2.3076    4.2928    5.6875 C.3       1 <0>         0.0969
     20 H2         -2.6230    3.5200    4.9871 H         1 <0>         0.0859
     21 C16        -0.7845    4.2590    5.8358 C.3       1 <0>         0.1537
     22 H3         -0.3225    4.8544    5.0484 H         1 <0>         0.0997
     23 C17        -0.3014    2.8297    5.7269 C.2       1 <0>        -0.1605
     24 C18         0.4437    2.4863    4.7112 C.2       1 <0>        -0.1071
     25 C19         0.9979    1.0980    4.5440 C.3       1 <0>        -0.0929
     26 H4          0.2982    0.3519    4.9132 H         1 <0>         0.0816
     27 C20         1.2565    0.8264    3.0557 C.3       1 <0>         0.0933
     28 H5          1.1804    1.7597    2.4983 H         1 <0>         0.0688
     29 C21         0.2069   -0.1636    2.5377 C.3       1 <0>         0.1069
     30 H6          0.1026   -0.9694    3.2796 H         1 <0>         0.0567
     31 C22         0.6605   -0.7705    1.2172 C.3       1 <0>        -0.1146
     32 O3         -1.0476    0.5044    2.4412 O.3       1 <0>        -0.3467
     33 C23        -1.9718    0.1575    3.4745 C.3       1 <0>         0.0222
     34 O4          2.5642    0.2738    2.9049 O.3       1 <0>        -0.5602
     35 C24         2.3269    0.9776    5.2989 C.3       1 <0>        -0.1443
     36 C25        -0.6941    1.8453    6.7986 C.3       1 <0>        -0.1080
     37 O5         -0.4124    4.7849    7.1134 O.3       1 <0>        -0.3347
     38 C26         0.7832    5.3985    7.1972 C.2       1 <0>         0.6456
     39 O6          1.4916    5.4856    6.2138 O.2       1 <0>        -0.5727
     40 N2          1.1942    5.9161    8.3718 N.am      1 <0>        -0.8267
     41 O7         -2.9214    4.0603    6.9581 O.3       1 <0>        -0.3609
     42 C27        -4.1897    3.4065    6.8800 C.3       1 <0>         0.0235
     43 C28        -5.9396    4.4934    2.3338 C.3       1 <0>        -0.1127
     44 H7          0.8053    1.4722   -0.3383 H         1 <0>         0.0383
     45 H8         -0.8120    1.3566   -1.0726 H         1 <0>         0.0463
     46 H9         -0.6471    1.6143    0.6809 H         1 <0>         0.0848
     47 H10        -1.6267   -1.9742   -0.2387 H         1 <0>         0.0567
     48 H11        -1.8891   -1.0456    1.2390 H         1 <0>         0.0765
     49 H12        -3.0692    1.0863    1.1663 H         1 <0>         0.1403
     50 H13        -5.2040    2.0698   -2.3969 H         1 <0>         0.1247
     51 H14        -4.0813    0.2118   -3.5734 H         1 <0>         0.1290
     52 H15        -2.7569   -2.2359   -2.4569 H         1 <0>         0.3838
     53 H16        -5.5955    3.1974   -0.1374 H         1 <0>         0.4144
     54 H17        -2.5502    4.3986    2.9637 H         1 <0>         0.1309
     55 H18        -4.3714    6.4403    3.9639 H         1 <0>         0.0918
     56 H19        -4.7719    4.9562    4.8682 H         1 <0>         0.0869
     57 H20        -1.9598    6.1084    4.5738 H         1 <0>         0.0780
     58 H21        -2.9972    6.3087    6.0061 H         1 <0>         0.0861
     59 H22         0.6695    3.2342    3.9530 H         1 <0>         0.1105
     60 H23         0.6613   -1.8654    1.3127 H         1 <0>         0.0597
     61 H24         1.6937   -0.4676    1.0059 H         1 <0>         0.0844
     62 H25        -2.9315    0.6359    3.2791 H         1 <0>         0.0789
     63 H26        -2.1028   -0.9244    3.4965 H         1 <0>         0.0403
     64 H27        -1.5859    0.4964    4.4359 H         1 <0>         0.0441
     65 H28         3.2734    0.8495    3.2219 H         1 <0>         0.3805
     66 H29         2.1624    1.1758    6.3580 H         1 <0>         0.0567
     67 H30         2.7250   -0.0295    5.1752 H         1 <0>         0.0708
     68 H31         3.0381    1.7009    4.9000 H         1 <0>         0.0569
     69 H32        -1.6323    1.3635    6.5233 H         1 <0>         0.0612
     70 H33         0.0854    1.0905    6.9019 H         1 <0>         0.0598
     71 H34        -0.8194    2.3701    7.7457 H         1 <0>         0.0717
     72 H35         0.6286    5.8466    9.1568 H         1 <0>         0.4089
     73 H36         2.0555    6.3581    8.4321 H         1 <0>         0.4251
     74 H37        -4.0691    2.4359    6.3987 H         1 <0>         0.0401
     75 H38        -4.5888    3.2667    7.8846 H         1 <0>         0.0872
     76 H39        -4.8784    4.0180    6.2972 H         1 <0>         0.0432
     77 H40        -6.4855    4.0360    1.5087 H         1 <0>         0.0611
     78 H41        -6.3109    4.0974    3.2790 H         1 <0>         0.0719
     79 H42        -6.0840    5.5736    2.3106 H         1 <0>         0.0730
@<TRIPOS>BOND
     1    1    2 1
     2    1   44 1
     3    1   45 1
     4    1   46 1
     5    2    3 1
     6    2   31 1
     7    2    4 1
     8    4    5 1
     9    4   47 1
    10    4   48 1
    11    5   10 ar
    12    5    6 ar
    13    6    7 ar
    14    6   49 1
    15    7    8 ar
    16    7   12 1
    17    8    9 ar
    18    8   50 1
    19    9   10 ar
    20    9   51 1
    21   10   11 1
    22   11   52 1
    23   12   13 am
    24   12   53 1
    25   13   14 2
    26   13   15 1
    27   15   16 2
    28   15   43 1
    29   16   17 1
    30   16   54 1
    31   17   18 1
    32   17   55 1
    33   17   56 1
    34   18   19 1
    35   18   57 1
    36   18   58 1
    37   19   20 1
    38   19   21 1
    39   19   41 1
    40   21   22 1
    41   21   23 1
    42   21   37 1
    43   23   24 2
    44   23   36 1
    45   24   25 1
    46   24   59 1
    47   25   26 1
    48   25   27 1
    49   25   35 1
    50   27   28 1
    51   27   29 1
    52   27   34 1
    53   29   30 1
    54   29   31 1
    55   29   32 1
    56   31   60 1
    57   31   61 1
    58   32   33 1
    59   33   62 1
    60   33   63 1
    61   33   64 1
    62   34   65 1
    63   35   66 1
    64   35   67 1
    65   35   68 1
    66   36   69 1
    67   36   70 1
    68   36   71 1
    69   37   38 1
    70   38   39 2
    71   38   40 am
    72   40   72 1
    73   40   73 1
    74   41   42 1
    75   42   74 1
    76   42   75 1
    77   42   76 1
    78   43   77 1
    79   43   78 1
    80   43   79 1
@<TRIPOS>MOLECULE
CHEMBL191268
   50    52     0     0     0
SMALL
USER_CHARGES

@<TRIPOS>ATOM
      1 C1          0.4892    1.2685   -0.3401 C.3       1 <0>        -0.1524
      2 C2          0.3581   -0.2530   -0.2465 C.3       1 <0>        -0.1199
      3 C3         -1.1227   -0.6358   -0.2052 C.3       1 <0>        -0.1358
      4 C4         -1.2538   -2.1573   -0.1116 C.3       1 <0>         0.1071
      5 N1         -2.6716   -2.5237   -0.0720 N.pl3     1 <0>        -0.4484
      6 C5         -3.4478   -2.6552    1.0563 C.ar      1 <0>         0.3137
      7 C6         -4.7295   -3.0166    0.6094 C.ar      1 <0>        -0.1004
      8 C7         -5.7341   -3.2185    1.5697 C.ar      1 <0>         0.5096
      9 N2         -5.4258   -3.0585    2.8528 N.ar      1 <0>        -0.5905
     10 C8         -4.2058   -2.7178    3.2252 C.ar      1 <0>         0.3649
     11 N3         -3.2332   -2.5179    2.3600 N.ar      1 <0>        -0.5566
     12 N4         -7.0174   -3.5758    1.1884 N.pl3     1 <0>        -0.8180
     13 N5         -4.6796   -3.0882   -0.7441 N.2       1 <0>        -0.4474
     14 C9         -3.4695   -2.7926   -1.1512 C.2       1 <0>         0.2334
     15 S1         -2.9474   -2.7515   -2.8336 S.3       1 <0>         0.1322
     16 C10        -4.3475   -3.3372   -3.7288 C.ar      1 <0>        -0.0917
     17 C11        -5.1479   -2.4433   -4.4283 C.ar      1 <0>        -0.1280
     18 C12        -6.2493   -2.9031   -5.1321 C.ar      1 <0>         0.1221
     19 C13        -6.5532   -4.2596   -5.1388 C.ar      1 <0>         0.0953
     20 C14        -5.7521   -5.1540   -4.4394 C.ar      1 <0>         0.1154
     21 C15        -4.6471   -4.6936   -3.7395 C.ar      1 <0>        -0.0218
     22 Cl1        -3.6422   -5.8113   -2.8709 Cl        1 <0>        -0.0262
     23 O1         -6.0489   -6.4814   -4.4454 O.3       1 <0>        -0.3167
     24 C16        -6.8748   -6.9664   -3.3849 C.3       1 <0>         0.0364
     25 O2         -7.6358   -4.7116   -5.8301 O.3       1 <0>        -0.3157
     26 C17        -7.4094   -5.1648   -7.1662 C.3       1 <0>         0.0373
     27 O3         -7.0334   -2.0272   -5.8162 O.3       1 <0>        -0.2956
     28 C18        -6.6625   -0.6482   -5.7654 C.3       1 <0>         0.0190
     29 H1          1.5441    1.5411   -0.3695 H         1 <0>         0.0585
     30 H2         -0.0025    1.6204   -1.2470 H         1 <0>         0.0552
     31 H3          0.0193    1.7278    0.5295 H         1 <0>         0.0549
     32 H4          0.8280   -0.7124   -1.1161 H         1 <0>         0.0673
     33 H5          0.8498   -0.6050    0.6605 H         1 <0>         0.0674
     34 H6         -1.5926   -0.1764    0.6645 H         1 <0>         0.0727
     35 H7         -1.6143   -0.2839   -1.1121 H         1 <0>         0.0716
     36 H8         -0.7839   -2.6166   -0.9812 H         1 <0>         0.0978
     37 H9         -0.7621   -2.5092    0.7954 H         1 <0>         0.1033
     38 H10        -3.9979   -2.5978    4.2782 H         1 <0>         0.2059
     39 H11        -7.2304   -3.6893    0.2489 H         1 <0>         0.4173
     40 H12        -7.7029   -3.7124    1.8610 H         1 <0>         0.4110
     41 H13        -4.9119   -1.3894   -4.4232 H         1 <0>         0.1562
     42 H14        -6.9616   -8.0504   -3.4586 H         1 <0>         0.1013
     43 H15        -6.4280   -6.7020   -2.4265 H         1 <0>         0.0499
     44 H16        -7.8648   -6.5166   -3.4606 H         1 <0>         0.0553
     45 H17        -8.3629   -5.4144   -7.6317 H         1 <0>         0.0993
     46 H18        -6.9205   -4.3769   -7.7392 H         1 <0>         0.0490
     47 H19        -6.7721   -6.0489   -7.1469 H         1 <0>         0.0543
     48 H20        -6.6755   -0.3063   -4.7305 H         1 <0>         0.0609
     49 H21        -5.6601   -0.5261   -6.1758 H         1 <0>         0.0609
     50 H22        -7.3690   -0.0601   -6.3512 H         1 <0>         0.1086
@<TRIPOS>BOND
     1    1    2 1
     2    1   29 1
     3    1   30 1
     4    1   31 1
     5    2    3 1
     6    2   32 1
     7    2   33 1
     8    3    4 1
     9    3   34 1
    10    3   35 1
    11    4    5 1
    12    4   36 1
    13    4   37 1
    14    5   14 1
    15    5    6 1
    16    6   11 ar
    17    6    7 ar
    18    7    8 ar
    19    7   13 1
    20    8    9 ar
    21    8   12 1
    22    9   10 ar
    23   10   11 ar
    24   10   38 1
    25   12   39 1
    26   12   40 1
    27   13   14 2
    28   14   15 1
    29   15   16 1
    30   16   21 ar
    31   16   17 ar
    32   17   18 ar
    33   17   41 1
    34   18   19 ar
    35   18   27 1
    36   19   20 ar
    37   19   25 1
    38   20   21 ar
    39   20   23 1
    40   21   22 1
    41   23   24 1
    42   24   42 1
    43   24   43 1
    44   24   44 1
    45   25   26 1
    46   26   45 1
    47   26   46 1
    48   26   47 1
    49   27   28 1
    50   28   48 1
    51   28   49 1
    52   28   50 1
@<TRIPOS>MOLECULE
CHEMBL424811
   42    44     0     0     0
SMALL
USER_CHARGES

@<TRIPOS>ATOM
      1 C1          0.4687    1.4392   -0.2629 C.3       1 <0>         0.0875
      2 N1          0.3629   -0.0206   -0.1999 N.am      1 <0>        -0.7320
      3 C2          0.8296   -0.6843    0.8763 C.2       1 <0>         0.5803
      4 O1          1.3389   -0.0711    1.7955 O.2       1 <0>        -0.4949
      5 C3          0.7236   -2.1471    0.9394 C.2       1 <0>         0.0362
      6 C4          1.1528   -2.9627    1.9810 C.2       1 <0>        -0.0907
      7 C5          0.8528   -4.2961    1.6195 C.2       1 <0>         0.1207
      8 N2          0.2793   -4.2865    0.4356 N.2       1 <0>        -0.2203
      9 N3          0.1784   -2.9647   -0.0130 N.pl3     1 <0>        -0.4551
     10 H1         -0.2092   -2.6778   -0.8546 H         1 <0>         0.4442
     11 C6          1.1369   -5.5008    2.4357 C.ar      1 <0>        -0.0407
     12 C7          0.7997   -5.5241    3.7879 C.ar      1 <0>        -0.0476
     13 C8          1.0652   -6.6466    4.5452 C.ar      1 <0>        -0.0722
     14 C9          1.6685   -7.7551    3.9629 C.ar      1 <0>         0.1470
     15 C10         2.0067   -7.7390    2.6183 C.ar      1 <0>        -0.1629
     16 C11         1.7386   -6.6188    1.8498 C.ar      1 <0>         0.1587
     17 O2          2.0640   -6.6041    0.5307 O.3       1 <0>        -0.4804
     18 O3          1.9281   -8.8578    4.7137 O.3       1 <0>        -0.4836
     19 Cl1         0.6453   -6.6741    6.2294 Cl        1 <0>        -0.0463
     20 C12         1.8031   -2.5176    3.2343 C.ar      1 <0>        -0.0530
     21 C13         3.1393   -2.8358    3.4801 C.ar      1 <0>        -0.0571
     22 C14         3.7415   -2.4197    4.6483 C.ar      1 <0>        -0.1507
     23 C15         3.0198   -1.6851    5.5801 C.ar      1 <0>         0.1351
     24 C16         1.6897   -1.3671    5.3390 C.ar      1 <0>        -0.2051
     25 C17         1.0829   -1.7741    4.1700 C.ar      1 <0>        -0.0405
     26 O4          3.6164   -1.2771    6.7304 O.3       1 <0>        -0.3171
     27 C18         2.8161   -0.5253    7.6449 C.3       1 <0>         0.0266
     28 H2          1.5178    1.7301   -0.2086 H         1 <0>         0.0660
     29 H3          0.0412    1.7944   -1.2005 H         1 <0>         0.0806
     30 H4         -0.0741    1.8792    0.5737 H         1 <0>         0.0657
     31 H5         -0.0431   -0.5095   -0.9327 H         1 <0>         0.3976
     32 H6          0.3312   -4.6640    4.2428 H         1 <0>         0.1454
     33 H7          2.4757   -8.6020    2.1693 H         1 <0>         0.1502
     34 H8          2.9553   -6.2759    0.3491 H         1 <0>         0.3944
     35 H9          1.2078   -9.5028    4.7274 H         1 <0>         0.3983
     36 H10         3.7009   -3.4076    2.7563 H         1 <0>         0.1243
     37 H11         4.7756   -2.6655    4.8392 H         1 <0>         0.1313
     38 H12         1.1312   -0.7963    6.0662 H         1 <0>         0.1282
     39 H13         0.0499   -1.5220    3.9808 H         1 <0>         0.1192
     40 H14         2.4657    0.3847    7.1580 H         1 <0>         0.0560
     41 H15         1.9598   -1.1240    7.9555 H         1 <0>         0.0561
     42 H16         3.4123   -0.2632    8.5190 H         1 <0>         0.1001
@<TRIPOS>BOND
     1    1    2 1
     2    1   28 1
     3    1   29 1
     4    1   30 1
     5    2    3 am
     6    2   31 1
     7    3    4 2
     8    3    5 1
     9    5    9 1
    10    5    6 2
    11    6    7 1
    12    6   20 1
    13    7    8 2
    14    7   11 1
    15    8    9 1
    16    9   10 1
    17   11   16 ar
    18   11   12 ar
    19   12   13 ar
    20   12   32 1
    21   13   14 ar
    22   13   19 1
    23   14   15 ar
    24   14   18 1
    25   15   16 ar
    26   15   33 1
    27   16   17 1
    28   17   34 1
    29   18   35 1
    30   20   25 ar
    31   20   21 ar
    32   21   22 ar
    33   21   36 1
    34   22   23 ar
    35   22   37 1
    36   23   24 ar
    37   23   26 1
    38   24   25 ar
    39   24   38 1
    40   25   39 1
    41   26   27 1
    42   27   40 1
    43   27   41 1
    44   27   42 1
@<TRIPOS>MOLECULE
CHEMBL424811__1
   42    44     0     0     0
SMALL
USER_CHARGES

@<TRIPOS>ATOM
      1 C1         -0.0178    1.4608    0.0101 C.3       1 <0>         0.0878
      2 N1          0.0021   -0.0041    0.0020 N.am      1 <0>        -0.7247
      3 C2          0.5851   -0.6645   -1.0180 C.2       1 <0>         0.5991
      4 O1          1.0946   -0.0446   -1.9315 O.2       1 <0>        -0.5136
      5 C3          0.6051   -2.1399   -1.0261 C.2       1 <0>        -0.0034
      6 C4          1.1846   -2.9700   -2.0250 C.2       1 <0>        -0.0589
      7 C5          0.9509   -4.2698   -1.5907 C.2       1 <0>         0.0582
      8 N2          0.2759   -4.1667   -0.4104 N.pl3     1 <0>        -0.3673
      9 N3          0.0947   -2.9329   -0.1068 N.2       1 <0>        -0.2477
     10 H1         -0.0220   -4.9186    0.1251 H         1 <0>         0.4494
     11 C6          1.3534   -5.5158   -2.2731 C.ar      1 <0>        -0.0570
     12 C7          0.3824   -6.3883   -2.7687 C.ar      1 <0>        -0.0604
     13 C8          0.7623   -7.5508   -3.4058 C.ar      1 <0>        -0.0744
     14 C9          2.1101   -7.8572   -3.5564 C.ar      1 <0>         0.1514
     15 C10         3.0810   -6.9963   -3.0667 C.ar      1 <0>        -0.1611
     16 C11         2.7108   -5.8240   -2.4307 C.ar      1 <0>         0.1689
     17 O2          3.6611   -4.9772   -1.9560 O.3       1 <0>        -0.4777
     18 O3          2.4774   -9.0044   -4.1853 O.3       1 <0>        -0.4840
     19 Cl1        -0.4458   -8.6351   -4.0211 Cl        1 <0>        -0.0447
     20 C12         1.8838   -2.5430   -3.2588 C.ar      1 <0>        -0.0404
     21 C13         1.3376   -2.8352   -4.5087 C.ar      1 <0>        -0.0629
     22 C14         1.9912   -2.4357   -5.6553 C.ar      1 <0>        -0.1549
     23 C15         3.1914   -1.7434   -5.5668 C.ar      1 <0>         0.1314
     24 C16         3.7379   -1.4508   -4.3246 C.ar      1 <0>        -0.2066
     25 C17         3.0872   -1.8426   -3.1736 C.ar      1 <0>        -0.0232
     26 O4          3.8330   -1.3515   -6.6990 O.3       1 <0>        -0.3191
     27 C18         5.0633   -0.6433   -6.5353 C.3       1 <0>         0.0272
     28 H2          1.0048    1.8381    0.0023 H         1 <0>         0.0623
     29 H3         -0.5450    1.8219   -0.8730 H         1 <0>         0.0625
     30 H4         -0.5280    1.8123    0.9069 H         1 <0>         0.0778
     31 H5         -0.4044   -0.4986    0.7308 H         1 <0>         0.4074
     32 H6         -0.6653   -6.1531   -2.6528 H         1 <0>         0.1447
     33 H7          4.1267   -7.2388   -3.1854 H         1 <0>         0.1512
     34 H8          3.9293   -5.1581   -1.0447 H         1 <0>         0.3950
     35 H9          2.5945   -8.9092   -5.1404 H         1 <0>         0.4008
     36 H10         0.4042   -3.3740   -4.5783 H         1 <0>         0.1225
     37 H11         1.5691   -2.6618   -6.6234 H         1 <0>         0.1292
     38 H12         4.6717   -0.9122   -4.2595 H         1 <0>         0.1266
     39 H13         3.5107   -1.6108   -2.2076 H         1 <0>         0.1183
     40 H14         4.8838    0.2707   -5.9691 H         1 <0>         0.0561
     41 H15         5.7746   -1.2701   -5.9976 H         1 <0>         0.0551
     42 H16         5.4698   -0.3902   -7.5145 H         1 <0>         0.0992
@<TRIPOS>BOND
     1    1    2 1
     2    1   28 1
     3    1   29 1
     4    1   30 1
     5    2    3 am
     6    2   31 1
     7    3    4 2
     8    3    5 1
     9    5    9 2
    10    5    6 1
    11    6   20 1
    12    6    7 2
    13    7   11 1
    14    7    8 1
    15    8    9 1
    16    8   10 1
    17   11   16 ar
    18   11   12 ar
    19   12   13 ar
    20   12   32 1
    21   13   14 ar
    22   13   19 1
    23   14   15 ar
    24   14   18 1
    25   15   16 ar
    26   15   33 1
    27   16   17 1
    28   17   34 1
    29   18   35 1
    30   20   25 ar
    31   20   21 ar
    32   21   22 ar
    33   21   36 1
    34   22   23 ar
    35   22   37 1
    36   23   24 ar
    37   23   26 1
    38   24   25 ar
    39   24   38 1
    40   25   39 1
    41   26   27 1
    42   27   40 1
    43   27   41 1
    44   27   42 1
@<TRIPOS>MOLECULE
CHEMBL200469
   40    42     0     0     0
SMALL
USER_CHARGES

@<TRIPOS>ATOM
      1 C1          1.0719   -0.7162   -2.2840 C.3       1 <0>        -0.2020
      2 C2          0.0061   -0.1206   -1.4006 C.2       1 <0>         0.3956
      3 O1          0.1855    0.9590   -0.8774 O.2       1 <0>        -0.4613
      4 C3         -1.2496   -0.8470   -1.1734 C.ar      1 <0>        -0.1931
      5 C4         -1.4566   -2.0962   -1.7720 C.ar      1 <0>        -0.0483
      6 C5         -2.6262   -2.7684   -1.5578 C.ar      1 <0>        -0.1352
      7 C6         -3.6122   -2.2134   -0.7463 C.ar      1 <0>         0.1865
      8 C7         -3.4109   -0.9715   -0.1496 C.ar      1 <0>        -0.1613
      9 C8         -2.2416   -0.2953   -0.3528 C.ar      1 <0>        -0.0379
     10 N1         -4.8030   -2.9019   -0.5312 N.am      1 <0>        -0.6726
     11 C9         -4.8029   -4.2487   -0.4804 C.2       1 <0>         0.5941
     12 O2         -3.7525   -4.8593   -0.5351 O.2       1 <0>        -0.5044
     13 C10        -6.0742   -4.9807   -0.3588 C.2       1 <0>        -0.2884
     14 C11        -7.3449   -4.4424   -0.3897 C.2       1 <0>         0.1156
     15 N2         -8.2216   -5.4472   -0.2466 N.pl3     1 <0>        -0.4566
     16 H1         -9.1865   -5.3488   -0.2333 H         1 <0>         0.4488
     17 N3         -7.5344   -6.6576   -0.1200 N.2       1 <0>        -0.2508
     18 C12        -6.2424   -6.4273   -0.1871 C.2       1 <0>         0.1778
     19 C13        -5.1610   -7.4368   -0.1016 C.ar      1 <0>        -0.0470
     20 C14        -4.0886   -7.2406    0.7673 C.ar      1 <0>        -0.0185
     21 C15        -3.0835   -8.1824    0.8451 C.ar      1 <0>        -0.0749
     22 C16        -3.1367   -9.3273    0.0585 C.ar      1 <0>         0.1499
     23 C17        -4.2002   -9.5293   -0.8080 C.ar      1 <0>        -0.1678
     24 C18        -5.2162   -8.5921   -0.8883 C.ar      1 <0>         0.1601
     25 O3         -6.2615   -8.7915   -1.7329 O.3       1 <0>        -0.4824
     26 O4         -2.1434  -10.2511    0.1388 O.3       1 <0>        -0.4839
     27 Cl1        -1.7487   -7.9368    1.9276 Cl        1 <0>        -0.0477
     28 H2          1.9240   -0.0382   -2.3328 H         1 <0>         0.0850
     29 H3          1.3922   -1.6732   -1.8721 H         1 <0>         0.0945
     30 H4          0.6704   -0.8679   -3.2859 H         1 <0>         0.0938
     31 H5         -0.6927   -2.5272   -2.4022 H         1 <0>         0.1361
     32 H6         -2.7867   -3.7318   -2.0190 H         1 <0>         0.1425
     33 H7         -4.1785   -0.5446    0.4789 H         1 <0>         0.1321
     34 H8         -2.0844    0.6657    0.1144 H         1 <0>         0.1371
     35 H9         -5.6326   -2.4123   -0.4179 H         1 <0>         0.4098
     36 H10        -7.5897   -3.3972   -0.5079 H         1 <0>         0.1908
     37 H11        -4.0445   -6.3517    1.3790 H         1 <0>         0.1426
     38 H12        -4.2379  -10.4199   -1.4179 H         1 <0>         0.1494
     39 H13        -6.1242   -8.4325   -2.6202 H         1 <0>         0.3940
     40 H14        -2.2974  -10.9377    0.8021 H         1 <0>         0.3979
@<TRIPOS>BOND
     1    1    2 1
     2    1   28 1
     3    1   29 1
     4    1   30 1
     5    2    3 2
     6    2    4 1
     7    4    9 ar
     8    4    5 ar
     9    5    6 ar
    10    5   31 1
    11    6    7 ar
    12    6   32 1
    13    7    8 ar
    14    7   10 1
    15    8    9 ar
    16    8   33 1
    17    9   34 1
    18   10   11 am
    19   10   35 1
    20   11   12 2
    21   11   13 1
    22   13   18 1
    23   13   14 2
    24   14   15 1
    25   14   36 1
    26   15   16 1
    27   15   17 1
    28   17   18 2
    29   18   19 1
    30   19   24 ar
    31   19   20 ar
    32   20   21 ar
    33   20   37 1
    34   21   22 ar
    35   21   27 1
    36   22   23 ar
    37   22   26 1
    38   23   24 ar
    39   23   38 1
    40   24   25 1
    41   25   39 1
    42   26   40 1
@<TRIPOS>MOLECULE
CHEMBL200469__1
   40    42     0     0     0
SMALL
USER_CHARGES

@<TRIPOS>ATOM
      1 C1          1.1579   -0.4875   -0.8569 C.3       1 <0>        -0.2017
      2 C2          0.0006   -0.0020   -0.0226 C.2       1 <0>         0.3958
      3 O1          0.1110    1.0098    0.6372 O.2       1 <0>        -0.4619
      4 C3         -1.2605   -0.7538   -0.0084 C.ar      1 <0>        -0.1958
      5 C4         -1.3882   -1.9257   -0.7650 C.ar      1 <0>        -0.0487
      6 C5         -2.5631   -2.6222   -0.7484 C.ar      1 <0>        -0.1370
      7 C6         -3.6330   -2.1686    0.0187 C.ar      1 <0>         0.1921
      8 C7         -3.5107   -1.0040    0.7720 C.ar      1 <0>        -0.1623
      9 C8         -2.3374   -0.3045    0.7663 C.ar      1 <0>        -0.0370
     10 N1         -4.8287   -2.8815    0.0322 N.am      1 <0>        -0.6723
     11 C9         -4.8134   -4.2252   -0.0713 C.2       1 <0>         0.5971
     12 O2         -3.7536   -4.8226   -0.0797 O.2       1 <0>        -0.5027
     13 C10        -6.0769   -4.9687   -0.1740 C.2       1 <0>        -0.2682
     14 C11        -7.3772   -4.4186   -0.1784 C.2       1 <0>         0.0849
     15 N2         -8.2350   -5.3950   -0.2852 N.2       1 <0>        -0.2754
     16 H1         -7.9497   -7.4881   -0.4374 H         1 <0>         0.4472
     17 N3         -7.5454   -6.6103   -0.3547 N.pl3     1 <0>        -0.4518
     18 C12        -6.2190   -6.3527   -0.2919 C.2       1 <0>         0.2105
     19 C13        -5.1296   -7.3457   -0.3363 C.ar      1 <0>        -0.0792
     20 C14        -4.9148   -8.1000   -1.4929 C.ar      1 <0>        -0.0533
     21 C15        -3.8955   -9.0265   -1.5305 C.ar      1 <0>        -0.0779
     22 C16        -3.0789   -9.2140   -0.4197 C.ar      1 <0>         0.1580
     23 C17        -3.2847   -8.4699    0.7324 C.ar      1 <0>        -0.1633
     24 C18        -4.3019   -7.5323    0.7796 C.ar      1 <0>         0.1948
     25 O3         -4.5009   -6.7995    1.9053 O.3       1 <0>        -0.4767
     26 O4         -2.0766  -10.1297   -0.4637 O.3       1 <0>        -0.4840
     27 Cl1        -3.6298   -9.9629   -2.9679 Cl        1 <0>        -0.0449
     28 H2          2.0005    0.1942   -0.7410 H         1 <0>         0.0847
     29 H3          1.4497   -1.4849   -0.5281 H         1 <0>         0.0936
     30 H4          0.8607   -0.5229   -1.9050 H         1 <0>         0.0936
     31 H5         -0.5591   -2.2778   -1.3608 H         1 <0>         0.1349
     32 H6         -2.6625   -3.5258   -1.3314 H         1 <0>         0.1405
     33 H7         -4.3432   -0.6556    1.3652 H         1 <0>         0.1327
     34 H8         -2.2420    0.5963    1.3543 H         1 <0>         0.1369
     35 H9         -5.6729   -2.4111    0.1160 H         1 <0>         0.4113
     36 H10        -7.6199   -3.3688   -0.1051 H         1 <0>         0.1946
     37 H11        -5.5475   -7.9572   -2.3565 H         1 <0>         0.1438
     38 H12        -2.6481   -8.6191    1.5920 H         1 <0>         0.1517
     39 H13        -5.1099   -7.2063    2.5368 H         1 <0>         0.3936
     40 H14        -1.2337   -9.7754   -0.7782 H         1 <0>         0.4015
@<TRIPOS>BOND
     1    1    2 1
     2    1   28 1
     3    1   29 1
     4    1   30 1
     5    2    3 2
     6    2    4 1
     7    4    9 ar
     8    4    5 ar
     9    5    6 ar
    10    5   31 1
    11    6    7 ar
    12    6   32 1
    13    7    8 ar
    14    7   10 1
    15    8    9 ar
    16    8   33 1
    17    9   34 1
    18   10   11 am
    19   10   35 1
    20   11   12 2
    21   11   13 1
    22   13   14 1
    23   13   18 2
    24   14   15 2
    25   14   36 1
    26   15   17 1
    27   16   17 1
    28   17   18 1
    29   18   19 1
    30   19   24 ar
    31   19   20 ar
    32   20   21 ar
    33   20   37 1
    34   21   22 ar
    35   21   27 1
    36   22   23 ar
    37   22   26 1
    38   23   24 ar
    39   23   38 1
    40   24   25 1
    41   25   39 1
    42   26   40 1
@<TRIPOS>MOLECULE
CHEMBL368483
   85    86     0     0     0
SMALL
NO_CHARGES

@<TRIPOS>ATOM
      1 C1          0.2227    1.7122   -0.0165 C.3       1 <0>        -0.1315
      2 C2          0.2180    0.1766    0.0647 C.3       1 <0>        -0.1121
      3 H1          0.6802   -0.2227   -0.8264 H         1 <0>         0.1485
      4 C3         -1.2371   -0.2919    0.1527 C.3       1 <0>        -0.1342
      5 C4         -1.6424   -1.0446   -1.1232 C.3       1 <0>         0.1012
      6 H2         -2.5324   -1.6301   -0.8736 H         1 <0>         0.0611
      7 C5         -1.9468   -0.0647   -2.2434 C.3       1 <0>         0.1233
      8 H3         -2.4910    0.7899   -1.7977 H         1 <0>         0.0409
      9 C6         -2.8087   -0.6244   -3.3611 C.3       1 <0>        -0.0760
     10 H4         -3.8127   -0.1440   -3.2507 H         1 <0>         0.0594
     11 C7         -2.3037   -0.2215   -4.7147 C.2       1 <0>        -0.1466
     12 C8         -1.2612   -0.6722   -5.3508 C.2       1 <0>        -0.0883
     13 C9         -0.9602   -0.1236   -6.7326 C.3       1 <0>         0.1477
     14 H5         -1.9022   -0.0132   -7.2761 H         1 <0>         0.0993
     15 C10        -0.2659    1.2306   -6.6397 C.3       1 <0>         0.1309
     16 H6         -0.8414    1.9393   -7.2677 H         1 <0>         0.0725
     17 C11         1.1228    1.1611   -7.2042 C.2       1 <0>        -0.1475
     18 C12         2.2295    0.9464   -6.4948 C.2       1 <0>        -0.1045
     19 C13         2.1962    0.7416   -5.0593 C.2       1 <0>        -0.0484
     20 C14         3.2876    0.7739   -4.2576 C.2       1 <0>        -0.1608
     21 C15         3.0596    0.5769   -2.8273 C.2       1 <0>         0.4826
     22 O1          1.9005    0.3350   -2.5267 O.2       1 <0>        -0.4370
     23 N1          3.9518    0.7084   -1.8529 N.2       1 <0>        -0.5195
     24 C16         3.7920    0.1592   -0.6676 C.2       1 <0>         0.2674
     25 C17         4.6756    0.4951    0.3836 C.2       1 <0>        -0.2388
     26 C18         4.4764    0.0355    1.6522 C.2       1 <0>         0.1673
     27 O2          5.3669    0.3542    2.6196 O.3       1 <0>        -0.4545
     28 C19         3.3074   -0.7819    1.9969 C.2       1 <0>         0.1823
     29 C20         2.2218   -1.0753    0.9960 C.3       1 <0>        -0.0618
     30 C21         0.9941   -0.2325    1.3131 C.3       1 <0>        -0.0950
     31 C22         2.7100   -0.8176   -0.3964 C.2       1 <0>         0.3525
     32 O3          2.2499   -1.4791   -1.2973 O.2       1 <0>        -0.3595
     33 N2          3.1991   -1.2564    3.1929 N.2       1 <0>        -0.4486
     34 C23         4.1629   -0.8672    4.2253 C.3       1 <0>         0.0606
     35 C24         3.7542   -1.4675    5.5458 C.2       1 <0>        -0.1446
     36 C25         4.5992   -2.2100    6.2173 C.2       1 <0>        -0.1813
     37 C26         4.6691    0.9992   -4.7884 C.3       1 <0>        -0.1064
     38 O4         -0.2805    1.7401   -5.3145 O.3       1 <0>        -0.3580
     39 C27        -0.2948    3.1671   -5.2406 C.3       1 <0>         0.0282
     40 O5         -0.1256   -1.0511   -7.4303 O.3       1 <0>        -0.3421
     41 C28        -0.7426   -1.9996   -8.1599 C.2       1 <0>         0.6502
     42 O6         -1.9563   -2.0391   -8.2033 O.2       1 <0>        -0.5700
     43 N3         -0.0141   -2.9053   -8.8422 N.am      1 <0>        -0.8259
     44 C29        -0.3455   -1.7284   -4.7926 C.3       1 <0>        -0.1145
     45 C30        -3.0499   -2.1235   -3.2637 C.3       1 <0>        -0.1444
     46 O7         -0.7284    0.4555   -2.7779 O.3       1 <0>        -0.5142
     47 O8         -0.5898   -1.9283   -1.5043 O.3       1 <0>        -0.3309
     48 C31        -0.6918   -3.2342   -0.9331 C.3       1 <0>         0.0264
     49 H7          1.2500    2.0690   -0.0901 H         1 <0>         0.0391
     50 H8         -0.3366    2.0312   -0.8960 H         1 <0>         0.0607
     51 H9         -0.2420    2.1248    0.8790 H         1 <0>         0.0376
     52 H10        -1.3527   -0.9562    1.0104 H         1 <0>         0.0581
     53 H11        -1.8877    0.5746    0.2814 H         1 <0>         0.0645
     54 H12        -2.8925    0.5526   -5.2336 H         1 <0>         0.0901
     55 H13         1.2476    1.2975   -8.2815 H         1 <0>         0.1177
     56 H14         3.1830    0.9189   -7.0238 H         1 <0>         0.1149
     57 H15         1.2483    0.5195   -4.5649 H         1 <0>         0.1687
     58 H16         5.5231    1.1278    0.1672 H         1 <0>         0.1529
     59 H17         1.3079    0.6736    1.8453 H         1 <0>         0.0650
     60 H18         0.3305   -0.7984    1.9769 H         1 <0>         0.0780
     61 H19         1.9667   -2.1378    1.0788 H         1 <0>         0.1273
     62 H20         5.1539   -1.2299    3.9525 H         1 <0>         0.0925
     63 H21         4.1845    0.2192    4.3112 H         1 <0>         0.0975
     64 H22         2.7648   -1.2856    5.9386 H         1 <0>         0.1134
     65 H23         4.3063   -2.6402    7.1636 H         1 <0>         0.1026
     66 H24         5.5886   -2.3919    5.8245 H         1 <0>         0.0959
     67 H25         4.8856    2.0674   -4.7963 H         1 <0>         0.0665
     68 H26         5.3908    0.4868   -4.1522 H         1 <0>         0.0650
     69 H27         4.7368    0.6072   -5.8032 H         1 <0>         0.0609
     70 H28        -0.3055    3.4767   -4.1955 H         1 <0>         0.0909
     71 H29         0.5950    3.5651   -5.7284 H         1 <0>         0.0455
     72 H30        -1.1848    3.5480   -5.7415 H         1 <0>         0.0442
     73 H31         0.9548   -2.8738   -8.8075 H         1 <0>         0.4086
     74 H32        -0.4587   -3.5886   -9.3678 H         1 <0>         0.4259
     75 H33        -0.6539   -2.7074   -5.1593 H         1 <0>         0.0421
     76 H34         0.6775   -1.5272   -5.1104 H         1 <0>         0.0589
     77 H35        -0.3969   -1.7154   -3.7039 H         1 <0>         0.1112
     78 H36        -3.4802   -2.3598   -2.2905 H         1 <0>         0.0513
     79 H37        -3.7383   -2.4327   -4.0502 H         1 <0>         0.0526
     80 H38        -2.1038   -2.6521   -3.3806 H         1 <0>         0.0705
     81 H39        -0.8535    1.0883   -3.4983 H         1 <0>         0.3695
     82 H40        -1.6283   -3.6956   -1.2463 H         1 <0>         0.0335
     83 H41         0.1452   -3.8451   -1.2714 H         1 <0>         0.0814
     84 H42        -0.6700   -3.1579    0.1540 H         1 <0>         0.0337
     85 H43         6.1002    0.9051    2.3131 H         1 <0>         0.4056
@<TRIPOS>BOND
     1    1    2 1
     2    1   49 1
     3    1   50 1
     4    1   51 1
     5    2    3 1
     6    2   30 1
     7    2    4 1
     8    4    5 1
     9    4   52 1
    10    4   53 1
    11    5    6 1
    12    5    7 1
    13    5   47 1
    14    7    8 1
    15    7    9 1
    16    7   46 1
    17    9   10 1
    18    9   11 1
    19    9   45 1
    20   11   12 2
    21   11   54 1
    22   12   13 1
    23   12   44 1
    24   13   14 1
    25   13   15 1
    26   13   40 1
    27   15   16 1
    28   15   17 1
    29   15   38 1
    30   17   18 2
    31   17   55 1
    32   18   19 1
    33   18   56 1
    34   19   20 2
    35   19   57 1
    36   20   21 1
    37   20   37 1
    38   21   22 2
    39   21   23 1
    40   23   24 2
    41   24   31 1
    42   24   25 1
    43   25   26 2
    44   25   58 1
    45   26   27 1
    46   26   28 1
    47   27   85 1
    48   28   33 2
    49   28   29 1
    50   29   30 1
    51   29   31 1
    52   29   61 1
    53   30   59 1
    54   30   60 1
    55   31   32 2
    56   33   34 1
    57   34   35 1
    58   34   62 1
    59   34   63 1
    60   35   36 2
    61   35   64 1
    62   36   65 1
    63   36   66 1
    64   37   67 1
    65   37   68 1
    66   37   69 1
    67   38   39 1
    68   39   70 1
    69   39   71 1
    70   39   72 1
    71   40   41 1
    72   41   42 2
    73   41   43 am
    74   43   73 1
    75   43   74 1
    76   44   75 1
    77   44   76 1
    78   44   77 1
    79   45   78 1
    80   45   79 1
    81   45   80 1
    82   46   81 1
    83   47   48 1
    84   48   82 1
    85   48   83 1
    86   48   84 1
@<TRIPOS>MOLECULE
CHEMBL368483__1
   85    86     0     0     0
SMALL
NO_CHARGES

@<TRIPOS>ATOM
      1 C1         -0.1963    0.7520    0.0175 C.3       1 <0>        -0.1320
      2 C2         -0.1531   -0.7672   -0.2161 C.3       1 <0>        -0.1106
      3 H1          0.3204   -0.9620   -1.1674 H         1 <0>         0.1506
      4 C3         -1.5927   -1.2884   -0.2332 C.3       1 <0>        -0.1342
      5 C4         -1.9757   -1.7771   -1.6379 C.3       1 <0>         0.1021
      6 H2         -2.8468   -2.4284   -1.5176 H         1 <0>         0.0607
      7 C5         -2.3118   -0.5992   -2.5364 C.3       1 <0>         0.1234
      8 H3         -2.8818    0.1295   -1.9287 H         1 <0>         0.0409
      9 C6         -3.1570   -0.9454   -3.7493 C.3       1 <0>        -0.0752
     10 H4         -4.1754   -0.5287   -3.5485 H         1 <0>         0.0593
     11 C7         -2.6663   -0.2595   -4.9896 C.2       1 <0>        -0.1486
     12 C8         -1.6110   -0.5387   -5.6986 C.2       1 <0>        -0.0867
     13 C9         -1.3287    0.2892   -6.9380 C.3       1 <0>         0.1476
     14 H5         -2.2743    0.4791   -7.4525 H         1 <0>         0.0993
     15 C10        -0.6769    1.6168   -6.5671 C.3       1 <0>         0.1313
     16 H6         -1.2749    2.4206   -7.0406 H         1 <0>         0.0724
     17 C11         0.7127    1.7066   -7.1266 C.2       1 <0>        -0.1485
     18 C12         1.8263    1.3858   -6.4701 C.2       1 <0>        -0.1037
     19 C13         1.8010    0.8917   -5.1066 C.2       1 <0>        -0.0490
     20 C14         2.8918    0.7933   -4.3094 C.2       1 <0>        -0.1599
     21 C15         2.6715    0.3018   -2.9506 C.2       1 <0>         0.4839
     22 O1          1.5208   -0.0319   -2.7118 O.2       1 <0>        -0.4412
     23 N1          3.5603    0.2591   -1.9652 N.2       1 <0>        -0.5229
     24 C16         3.4190   -0.5249   -0.9176 C.2       1 <0>         0.2719
     25 C17         4.2928   -0.3835    0.1846 C.2       1 <0>        -0.2562
     26 C18         4.1094   -1.0981    1.3318 C.2       1 <0>         0.2418
     27 O2          4.9906   -0.9562    2.3486 O.3       1 <0>        -0.4395
     28 C19         2.9668   -2.0042    1.4964 C.2       1 <0>         0.1798
     29 C20         1.8899   -2.1206    0.4510 C.3       1 <0>        -0.1203
     30 C21         0.6369   -1.3983    0.9267 C.3       1 <0>        -0.1030
     31 C22         2.3683   -1.5693   -0.8571 C.2       1 <0>         0.3556
     32 O3          1.9281   -2.0470   -1.8764 O.2       1 <0>        -0.3615
     33 N2          2.8747   -2.7158    2.5699 N.2       1 <0>        -0.4384
     34 C23         1.7408   -3.6255    2.7506 C.3       1 <0>         0.0399
     35 C24         2.2374   -5.0481    2.7779 C.2       1 <0>        -0.1560
     36 C25         1.9470   -5.8239    3.7927 C.2       1 <0>        -0.1658
     37 C26         4.2649    1.1645   -4.7758 C.3       1 <0>        -0.1065
     38 O4         -0.7060    1.8445   -5.1661 O.3       1 <0>        -0.3582
     39 C27        -0.7647    3.2253   -4.8028 C.3       1 <0>         0.0283
     40 O5         -0.4663   -0.4503   -7.8057 O.3       1 <0>        -0.3420
     41 C28        -1.0543   -1.2485   -8.7167 C.2       1 <0>         0.6503
     42 O6         -2.2662   -1.3157   -8.7736 O.2       1 <0>        -0.5702
     43 N3         -0.2986   -1.9732   -9.5654 N.am      1 <0>        -0.8259
     44 C29        -0.6621   -1.6578   -5.3627 C.3       1 <0>        -0.1173
     45 C30        -3.3512   -2.4395   -3.9608 C.3       1 <0>        -0.1448
     46 O7         -1.1108    0.0564   -2.9471 O.3       1 <0>        -0.5144
     47 O8         -0.8964   -2.5317   -2.1856 O.3       1 <0>        -0.3304
     48 C31        -0.9570   -3.9291   -1.8933 C.3       1 <0>         0.0269
     49 H7          0.8193    1.1478    0.0237 H         1 <0>         0.0410
     50 H8         -0.7663    1.2264   -0.7814 H         1 <0>         0.0618
     51 H9         -0.6727    0.9589    0.9759 H         1 <0>         0.0377
     52 H10        -1.6866   -2.1169    0.4704 H         1 <0>         0.0554
     53 H11        -2.2699   -0.4868    0.0661 H         1 <0>         0.0658
     54 H12        -3.2795    0.5857   -5.3428 H         1 <0>         0.0903
     55 H13         0.8320    2.0636   -8.1528 H         1 <0>         0.1176
     56 H14         2.7797    1.4962   -6.9885 H         1 <0>         0.1149
     57 H15         0.8610    0.5443   -4.6730 H         1 <0>         0.1679
     58 H16         5.1199    0.3058    0.1063 H         1 <0>         0.1586
     59 H17         0.9228   -0.6106    1.6342 H         1 <0>         0.0703
     60 H18        -0.0081   -2.1078    1.4577 H         1 <0>         0.0735
     61 H19         1.6682   -3.1849    0.3140 H         1 <0>         0.1215
     62 H20         1.2386   -3.3979    3.6909 H         1 <0>         0.1045
     63 H21         1.0400   -3.5011    1.9251 H         1 <0>         0.0729
     64 H22         2.8328   -5.4279    1.9608 H         1 <0>         0.1112
     65 H23         2.3029   -6.8434    3.8122 H         1 <0>         0.1049
     66 H24         1.3515   -5.4441    4.6097 H         1 <0>         0.1005
     67 H25         4.4480    2.2180   -4.5646 H         1 <0>         0.0667
     68 H26         5.0030    0.5556   -4.2537 H         1 <0>         0.0655
     69 H27         4.3437    0.9901   -5.8489 H         1 <0>         0.0606
     70 H28        -0.7839    3.3147   -3.7166 H         1 <0>         0.0908
     71 H29         0.1118    3.7416   -5.1944 H         1 <0>         0.0458
     72 H30        -1.6667    3.6728   -5.2202 H         1 <0>         0.0441
     73 H31         0.6689   -1.9196   -9.5199 H         1 <0>         0.4087
     74 H32        -0.7222   -2.5483  -10.2217 H         1 <0>         0.4260
     75 H33        -1.0387   -2.5913   -5.7809 H         1 <0>         0.0442
     76 H34         0.3194   -1.4408   -5.7841 H         1 <0>         0.0554
     77 H35        -0.5799   -1.7518   -4.2799 H         1 <0>         0.1154
     78 H36        -3.9215   -2.8531   -3.1291 H         1 <0>         0.0495
     79 H37        -3.8927   -2.6073   -4.8918 H         1 <0>         0.0538
     80 H38        -2.3784   -2.9285   -4.0132 H         1 <0>         0.0715
     81 H39        -1.2563    0.8187   -3.5240 H         1 <0>         0.3705
     82 H40        -1.8791   -4.3455   -2.2989 H         1 <0>         0.0347
     83 H41        -0.1018   -4.4322   -2.3445 H         1 <0>         0.0815
     84 H42        -0.9364   -4.0756   -0.8133 H         1 <0>         0.0307
     85 H43         5.7061   -0.3321    2.1648 H         1 <0>         0.4115
@<TRIPOS>BOND
     1    1    2 1
     2    1   49 1
     3    1   50 1
     4    1   51 1
     5    2    3 1
     6    2   30 1
     7    2    4 1
     8    4    5 1
     9    4   52 1
    10    4   53 1
    11    5    6 1
    12    5    7 1
    13    5   47 1
    14    7    8 1
    15    7    9 1
    16    7   46 1
    17    9   10 1
    18    9   11 1
    19    9   45 1
    20   11   12 2
    21   11   54 1
    22   12   13 1
    23   12   44 1
    24   13   14 1
    25   13   15 1
    26   13   40 1
    27   15   16 1
    28   15   17 1
    29   15   38 1
    30   17   18 2
    31   17   55 1
    32   18   19 1
    33   18   56 1
    34   19   20 2
    35   19   57 1
    36   20   21 1
    37   20   37 1
    38   21   22 2
    39   21   23 1
    40   23   24 2
    41   24   31 1
    42   24   25 1
    43   25   26 2
    44   25   58 1
    45   26   27 1
    46   26   28 1
    47   27   85 1
    48   28   33 2
    49   28   29 1
    50   29   30 1
    51   29   31 1
    52   29   61 1
    53   30   59 1
    54   30   60 1
    55   31   32 2
    56   33   34 1
    57   34   35 1
    58   34   62 1
    59   34   63 1
    60   35   36 2
    61   35   64 1
    62   36   65 1
    63   36   66 1
    64   37   67 1
    65   37   68 1
    66   37   69 1
    67   38   39 1
    68   39   70 1
    69   39   71 1
    70   39   72 1
    71   40   41 1
    72   41   42 2
    73   41   43 am
    74   43   73 1
    75   43   74 1
    76   44   75 1
    77   44   76 1
    78   44   77 1
    79   45   78 1
    80   45   79 1
    81   45   80 1
    82   46   81 1
    83   47   48 1
    84   48   82 1
    85   48   83 1
    86   48   84 1
@<TRIPOS>MOLECULE
CHEMBL377371
   51    54     0     0     0
SMALL
USER_CHARGES

@<TRIPOS>ATOM
      1 C1         -0.0187    1.5258    0.0104 C.3       1 <0>        -0.1608
      2 C2          0.0021   -0.0041    0.0020 C.3       1 <0>         0.1021
      3 O1         -1.3386   -0.4987    0.0122 O.3       1 <0>        -0.7486
      4 P1         -1.6939   -2.0690    0.0071 P.3       1 <0>         2.3939
      5 O2         -1.0113   -2.7329    1.1401 O.2       1 <0>        -1.0124
      6 C3         -3.4965   -2.2846    0.1730 C.3       1 <0>        -0.7450
      7 C4         -3.8229   -3.7745    0.2935 C.3       1 <0>         0.1262
      8 N1         -5.2715   -3.9478    0.4268 N.pl3     1 <0>        -0.4476
      9 C5         -5.9842   -3.9699    1.6030 C.ar      1 <0>         0.3205
     10 C6         -7.3287   -4.1574    1.2419 C.ar      1 <0>        -0.1089
     11 C7         -8.2879   -4.2192    2.2659 C.ar      1 <0>         0.5172
     12 N2         -7.8796   -4.0975    3.5250 N.ar      1 <0>        -0.5903
     13 C8         -6.6037   -3.9225    3.8158 C.ar      1 <0>         0.3735
     14 N3         -5.6703   -3.8588    2.8889 N.ar      1 <0>        -0.5572
     15 N4         -9.6291   -4.4022    1.9704 N.pl3     1 <0>        -0.8137
     16 N5         -7.3752   -4.2397   -0.1109 N.2       1 <0>        -0.3931
     17 C9         -6.1654   -4.1116   -0.5964 C.2       1 <0>         0.1965
     18 S1         -5.7508   -4.1491   -2.3085 S.3       1 <0>         0.2705
     19 C10        -7.2988   -4.3827   -3.1170 C.2       1 <0>         0.0829
     20 N6         -8.4959   -4.4976   -2.5877 N.2       1 <0>        -0.4417
     21 C11        -9.6060   -4.6741   -3.3365 C.ar      1 <0>         0.0915
     22 C12       -10.9432   -4.8114   -2.8961 C.ar      1 <0>        -0.0472
     23 C13       -11.9625   -4.9862   -3.7952 C.ar      1 <0>        -0.1005
     24 C14       -11.7243   -5.0345   -5.1611 C.ar      1 <0>        -0.0779
     25 C15       -10.4279   -4.9031   -5.6277 C.ar      1 <0>         0.0125
     26 C16        -9.4004   -4.7280   -4.7335 C.ar      1 <0>        -0.1469
     27 S2         -7.6414   -4.5159   -4.8660 S.3       1 <0>         0.0931
     28 Cl1       -10.1027   -4.9605   -7.3320 Cl        1 <0>        -0.0486
     29 O3         -1.1998   -2.7266   -1.3769 O.3       1 <0>        -0.7491
     30 C17         0.1770   -2.8133   -1.7495 C.3       1 <0>         0.1018
     31 C18         0.2937   -3.4900   -3.1168 C.3       1 <0>        -0.1606
     32 H1          1.0039    1.9031    0.0027 H         1 <0>         0.0802
     33 H2         -0.5459    1.8868   -0.8726 H         1 <0>         0.0661
     34 H3         -0.5289    1.8773    0.9072 H         1 <0>         0.0702
     35 H4          0.5123   -0.3556   -0.8948 H         1 <0>         0.0605
     36 H5          0.5293   -0.3651    0.8851 H         1 <0>         0.0794
     37 H6         -3.8443   -1.7632    1.0647 H         1 <0>         0.1300
     38 H7         -3.9939   -1.8736   -0.7055 H         1 <0>         0.1101
     39 H8         -3.4752   -4.2960   -0.5983 H         1 <0>         0.1038
     40 H9         -3.3255   -4.1856    1.1720 H         1 <0>         0.1285
     41 H10        -6.3147   -3.8282    4.8521 H         1 <0>         0.2102
     42 H11        -9.9149   -4.4893    1.0476 H         1 <0>         0.4195
     43 H12       -10.2823   -4.4431    2.6864 H         1 <0>         0.4119
     44 H13       -11.1633   -4.7784   -1.8393 H         1 <0>         0.1408
     45 H14       -12.9744   -5.0892   -3.4322 H         1 <0>         0.1478
     46 H15       -12.5418   -5.1734   -5.8530 H         1 <0>         0.1523
     47 H16         0.6029   -1.8114   -1.8025 H         1 <0>         0.0599
     48 H17         0.7182   -3.3994   -1.0068 H         1 <0>         0.0797
     49 H18        -0.2475   -2.9039   -3.8596 H         1 <0>         0.0668
     50 H19         1.3439   -3.5561   -3.4011 H         1 <0>         0.0795
     51 H20        -0.1323   -4.4919   -3.0639 H         1 <0>         0.0709
@<TRIPOS>BOND
     1    1    2 1
     2    1   32 1
     3    1   33 1
     4    1   34 1
     5    2    3 1
     6    2   35 1
     7    2   36 1
     8    3    4 1
     9    4    5 2
    10    4    6 1
    11    4   29 1
    12    6    7 1
    13    6   37 1
    14    6   38 1
    15    7    8 1
    16    7   39 1
    17    7   40 1
    18    8   17 1
    19    8    9 1
    20    9   14 ar
    21    9   10 ar
    22   10   11 ar
    23   10   16 1
    24   11   12 ar
    25   11   15 1
    26   12   13 ar
    27   13   14 ar
    28   13   41 1
    29   15   42 1
    30   15   43 1
    31   16   17 2
    32   17   18 1
    33   18   19 1
    34   19   27 1
    35   19   20 2
    36   20   21 1
    37   21   26 ar
    38   21   22 ar
    39   22   23 ar
    40   22   44 1
    41   23   24 ar
    42   23   45 1
    43   24   25 ar
    44   24   46 1
    45   25   26 ar
    46   25   28 1
    47   26   27 1
    48   29   30 1
    49   30   31 1
    50   30   47 1
    51   30   48 1
    52   31   49 1
    53   31   50 1
    54   31   51 1
@<TRIPOS>MOLECULE
CHEMBL386780
   49    52     0     0     0
SMALL
USER_CHARGES

@<TRIPOS>ATOM
      1 C1         -0.0187    1.5258    0.0104 C.3       1 <0>        -0.1863
      2 C2          0.0021   -0.0041    0.0020 C.3       1 <0>         0.0242
      3 C3          0.7421   -0.5109    1.2415 C.3       1 <0>        -0.1854
      4 N1         -1.3761   -0.5125    0.0124 N.4       1 <0>        -0.5077
      5 C4         -2.0500   -0.1262   -1.2343 C.3       1 <0>        -0.0079
      6 C5         -3.4854   -0.6557   -1.2235 C.3       1 <0>        -0.1736
      7 C6         -4.1873   -0.2533   -2.5220 C.3       1 <0>         0.1162
      8 N2         -5.5617   -0.7604   -2.5116 N.pl3     1 <0>        -0.4581
      9 C7         -5.9816   -1.9845   -2.9777 C.ar      1 <0>         0.3210
     10 C8         -7.3688   -2.0301   -2.7616 C.ar      1 <0>        -0.1098
     11 C9         -8.0631   -3.1869   -3.1519 C.ar      1 <0>         0.5205
     12 N3         -7.3767   -4.1814   -3.7057 N.ar      1 <0>        -0.5878
     13 C10        -6.0722   -4.0926   -3.8887 C.ar      1 <0>         0.3802
     14 N4         -5.3807   -3.0279   -3.5388 N.ar      1 <0>        -0.5685
     15 N5         -9.4318   -3.2893   -2.9635 N.pl3     1 <0>        -0.8083
     16 N6         -7.7260   -0.8557   -2.1852 N.2       1 <0>        -0.3870
     17 C11        -6.6631   -0.1058   -2.0311 C.2       1 <0>         0.1973
     18 S1         -6.6537    1.5050   -1.3169 S.3       1 <0>         0.2598
     19 C12        -8.3403    1.7952   -0.8975 C.2       1 <0>         0.0720
     20 N7         -9.3781    1.0065   -1.0628 N.2       1 <0>        -0.4352
     21 C13       -10.6263    1.3627   -0.6897 C.ar      1 <0>         0.0850
     22 C14       -11.8205    0.6142   -0.8108 C.ar      1 <0>        -0.0444
     23 C15       -13.0157    1.1272   -0.3791 C.ar      1 <0>        -0.0991
     24 C16       -13.0999    2.3901    0.1890 C.ar      1 <0>        -0.0707
     25 C17       -11.9512    3.1503    0.3236 C.ar      1 <0>         0.0093
     26 C18       -10.7493    2.6440   -0.1067 C.ar      1 <0>        -0.1416
     27 S2         -9.0736    3.2340   -0.1318 S.3       1 <0>         0.0961
     28 Cl1       -12.0293    4.7338    1.0307 Cl        1 <0>        -0.0438
     29 H1          1.0039    1.9031    0.0027 H         1 <0>         0.1072
     30 H2         -0.5459    1.8868   -0.8726 H         1 <0>         0.0819
     31 H3         -0.5289    1.8773    0.9072 H         1 <0>         0.0828
     32 H4          0.5123   -0.3556   -0.8948 H         1 <0>         0.1405
     33 H5          0.2319   -0.1594    2.1383 H         1 <0>         0.0820
     34 H6          0.7568   -1.6008    1.2356 H         1 <0>         0.0821
     35 H7          1.7647   -0.1336    1.2338 H         1 <0>         0.1079
     36 H8         -1.3629   -1.5185    0.0898 H         1 <0>         0.4299
     37 H9         -2.0643    0.9605   -1.3179 H         1 <0>         0.1392
     38 H10        -1.5132   -0.5489   -2.0836 H         1 <0>         0.1392
     39 H11        -3.4711   -1.7424   -1.1399 H         1 <0>         0.1004
     40 H12        -4.0222   -0.2330   -0.3742 H         1 <0>         0.0974
     41 H13        -4.2016    0.8334   -2.6056 H         1 <0>         0.1061
     42 H14        -3.6505   -0.6760   -3.3713 H         1 <0>         0.1161
     43 H15        -5.5530   -4.9239   -4.3424 H         1 <0>         0.2102
     44 H16        -9.9218   -2.5570   -2.5579 H         1 <0>         0.4217
     45 H17        -9.9002   -4.0935   -3.2371 H         1 <0>         0.4152
     46 H18       -11.7900   -0.3726   -1.2486 H         1 <0>         0.1416
     47 H19       -13.9127    0.5350   -0.4840 H         1 <0>         0.1503
     48 H20       -14.0518    2.7760    0.5225 H         1 <0>         0.1550
     49 H21        -1.8730   -0.1212    0.7986 H         1 <0>         0.4271
@<TRIPOS>BOND
     1    1    2 1
     2    1   29 1
     3    1   30 1
     4    1   31 1
     5    2    3 1
     6    2    4 1
     7    2   32 1
     8    3   33 1
     9    3   34 1
    10    3   35 1
    11    4    5 1
    12    4   36 1
    13    4   49 1
    14    5    6 1
    15    5   37 1
    16    5   38 1
    17    6    7 1
    18    6   39 1
    19    6   40 1
    20    7    8 1
    21    7   41 1
    22    7   42 1
    23    8   17 1
    24    8    9 1
    25    9   14 ar
    26    9   10 ar
    27   10   11 ar
    28   10   16 1
    29   11   12 ar
    30   11   15 1
    31   12   13 ar
    32   13   14 ar
    33   13   43 1
    34   15   44 1
    35   15   45 1
    36   16   17 2
    37   17   18 1
    38   18   19 1
    39   19   27 1
    40   19   20 2
    41   20   21 1
    42   21   26 ar
    43   21   22 ar
    44   22   23 ar
    45   22   46 1
    46   23   24 ar
    47   23   47 1
    48   24   25 ar
    49   24   48 1
    50   25   26 ar
    51   25   28 1
    52   26   27 1
@<TRIPOS>MOLECULE
CHEMBL211528
   52    55     0     0     0
SMALL
USER_CHARGES

@<TRIPOS>ATOM
      1 C1         -0.0187    1.5258    0.0104 C.3       1 <0>        -0.1792
      2 C2          0.0021   -0.0041    0.0020 C.3       1 <0>         0.0554
      3 C3          0.7421   -0.5109    1.2415 C.3       1 <0>        -0.1793
      4 C4         -1.4333   -0.5336    0.0129 C.3       1 <0>        -0.1778
      5 N1          0.6897   -0.4778   -1.2066 N.4       1 <0>        -0.5037
      6 C5          2.0678    0.0307   -1.2170 C.3       1 <0>        -0.0137
      7 C6          2.7840   -0.4628   -2.4758 C.3       1 <0>        -0.1722
      8 C7          4.2193    0.0668   -2.4867 C.3       1 <0>         0.1163
      9 N2          4.9051   -0.4056   -3.6920 N.pl3     1 <0>        -0.4578
     10 C8          5.6191   -1.5745   -3.8173 C.ar      1 <0>         0.3210
     11 C9          6.0904   -1.6047   -5.1403 C.ar      1 <0>        -0.1098
     12 C10         6.8620   -2.7064   -5.5444 C.ar      1 <0>         0.5205
     13 N3          7.1094   -3.6660   -4.6585 N.ar      1 <0>        -0.5877
     14 C11         6.6445   -3.5937   -3.4249 C.ar      1 <0>         0.3800
     15 N4          5.9175   -2.5801   -3.0023 N.ar      1 <0>        -0.5683
     16 N5          7.3537   -2.7913   -6.8369 N.pl3     1 <0>        -0.8084
     17 N6          5.6517   -0.4759   -5.7505 N.2       1 <0>        -0.3870
     18 C12         4.9480    0.2319   -4.9021 C.2       1 <0>         0.1973
     19 S1          4.1770    1.7745   -5.2632 S.3       1 <0>         0.2600
     20 C13         4.5824    2.0686   -6.9525 C.2       1 <0>         0.0721
     21 N7          5.2874    1.3226   -7.7728 N.2       1 <0>        -0.4353
     22 C14         5.5202    1.6757   -9.0555 C.ar      1 <0>         0.0851
     23 C15         6.2569    0.9697  -10.0352 C.ar      1 <0>        -0.0445
     24 C16         6.3995    1.4727  -11.3019 C.ar      1 <0>        -0.0992
     25 C17         5.8311    2.6837  -11.6695 C.ar      1 <0>        -0.0707
     26 C18         5.1031    3.4013  -10.7365 C.ar      1 <0>         0.0093
     27 C19         4.9556    2.9047   -9.4646 C.ar      1 <0>        -0.1416
     28 S2          4.1328    3.4537   -7.9887 S.3       1 <0>         0.0960
     29 Cl1         4.3821    4.9196  -11.1708 Cl        1 <0>        -0.0439
     30 H1          1.0039    1.9031    0.0027 H         1 <0>         0.0829
     31 H2         -0.5459    1.8868   -0.8726 H         1 <0>         0.0833
     32 H3         -0.5289    1.8773    0.9072 H         1 <0>         0.1066
     33 H4          0.2319   -0.1594    2.1383 H         1 <0>         0.1065
     34 H5          0.7568   -1.6008    1.2356 H         1 <0>         0.0829
     35 H6          1.7647   -0.1336    1.2338 H         1 <0>         0.0829
     36 H7         -1.9605   -0.1726   -0.8702 H         1 <0>         0.0825
     37 H8         -1.4185   -1.6235    0.0069 H         1 <0>         0.0823
     38 H9         -1.9435   -0.1821    0.9097 H         1 <0>         0.1074
     39 H10         0.7033   -1.4867   -1.2121 H         1 <0>         0.4282
     40 H11         2.0530    1.1205   -1.2110 H         1 <0>         0.1402
     41 H12         2.5950   -0.3304   -0.3340 H         1 <0>         0.1409
     42 H13         2.7987   -1.5526   -2.4818 H         1 <0>         0.1001
     43 H14         2.2568   -0.1017   -3.3589 H         1 <0>         0.0972
     44 H15         4.2046    1.1567   -2.4807 H         1 <0>         0.1060
     45 H16         4.7465   -0.2943   -1.6036 H         1 <0>         0.1159
     46 H17         6.8690   -4.3953   -2.7367 H         1 <0>         0.2101
     47 H18         7.1662   -2.0848   -7.4745 H         1 <0>         0.4217
     48 H19         7.8855   -3.5573   -7.1042 H         1 <0>         0.4152
     49 H20         6.7123    0.0238   -9.7819 H         1 <0>         0.1416
     50 H21         6.9677    0.9137  -12.0306 H         1 <0>         0.1503
     51 H22         5.9558    3.0626  -12.6732 H         1 <0>         0.1550
     52 H23         0.2017   -0.1436   -2.0240 H         1 <0>         0.4276
@<TRIPOS>BOND
     1    1    2 1
     2    1   30 1
     3    1   31 1
     4    1   32 1
     5    2    3 1
     6    2    4 1
     7    2    5 1
     8    3   33 1
     9    3   34 1
    10    3   35 1
    11    4   36 1
    12    4   37 1
    13    4   38 1
    14    5    6 1
    15    5   39 1
    16    5   52 1
    17    6    7 1
    18    6   40 1
    19    6   41 1
    20    7    8 1
    21    7   42 1
    22    7   43 1
    23    8    9 1
    24    8   44 1
    25    8   45 1
    26    9   18 1
    27    9   10 1
    28   10   15 ar
    29   10   11 ar
    30   11   12 ar
    31   11   17 1
    32   12   13 ar
    33   12   16 1
    34   13   14 ar
    35   14   15 ar
    36   14   46 1
    37   16   47 1
    38   16   48 1
    39   17   18 2
    40   18   19 1
    41   19   20 1
    42   20   28 1
    43   20   21 2
    44   21   22 1
    45   22   27 ar
    46   22   23 ar
    47   23   24 ar
    48   23   49 1
    49   24   25 ar
    50   24   50 1
    51   25   26 ar
    52   25   51 1
    53   26   27 ar
    54   26   29 1
    55   27   28 1
@<TRIPOS>MOLECULE
CHEMBL378352
   85    86     0     0     0
SMALL
USER_CHARGES

@<TRIPOS>ATOM
      1 C1         -0.0513    1.4603    0.0080 C.3       1 <0>        -0.1479
      2 C2         -0.0470   -0.0721    0.0388 C.3       1 <0>        -0.0895
      3 H1          0.4469   -0.4498   -0.8531 H         1 <0>         0.1007
      4 C3         -1.4967   -0.5607    0.0855 C.3       1 <0>        -0.1323
      5 C4         -1.8373   -1.4015   -1.1418 C.3       1 <0>         0.0986
      6 H2         -2.7674   -1.9497   -0.9485 H         1 <0>         0.0567
      7 C5         -2.0478   -0.5178   -2.3690 C.3       1 <0>         0.1174
      8 H3         -1.1695    0.1004   -2.5435 H         1 <0>         0.0621
      9 C6         -2.2901   -1.4072   -3.5991 C.3       1 <0>        -0.0796
     10 H4         -2.6849   -2.3632   -3.2658 H         1 <0>         0.0816
     11 C7         -0.9859   -1.5881   -4.3240 C.2       1 <0>        -0.1076
     12 C8         -0.7643   -2.5366   -5.1934 C.2       1 <0>        -0.1322
     13 C9          0.5853   -2.6278   -5.8679 C.3       1 <0>         0.1570
     14 H5          0.4352   -2.7347   -6.9451 H         1 <0>         0.0988
     15 C10         1.3513   -3.8382   -5.3435 C.3       1 <0>         0.1269
     16 H6          1.2532   -4.6632   -6.0525 H         1 <0>         0.0821
     17 C11         2.8126   -3.5006   -5.1843 C.2       1 <0>        -0.1629
     18 C12         3.2991   -3.2251   -3.9711 C.2       1 <0>        -0.1112
     19 C13         4.7144   -2.9137   -3.7987 C.2       1 <0>        -0.0381
     20 C14         5.2711   -2.7530   -2.5789 C.2       1 <0>        -0.1668
     21 C15         4.5115   -2.9247   -1.3442 C.2       1 <0>         0.5217
     22 O1          3.4576   -3.5472   -1.3738 O.2       1 <0>        -0.4628
     23 N1          4.9231   -2.4454   -0.1762 N.2       1 <0>        -0.5263
     24 C16         4.2342   -1.7282    0.6699 C.2       1 <0>         0.2709
     25 C17         4.7944   -1.4545    1.9413 C.2       1 <0>        -0.2384
     26 C18         4.0985   -0.7513    2.8747 C.2       1 <0>         0.1647
     27 O2          4.6533   -0.5430    4.0898 O.3       1 <0>        -0.4558
     28 C19         2.7700   -0.1981    2.5940 C.2       1 <0>         0.1826
     29 C20         2.1778   -0.2260    1.2147 C.3       1 <0>        -0.0648
     30 C21         0.6942   -0.5581    1.2863 C.3       1 <0>        -0.0890
     31 C22         2.8831   -1.2216    0.3380 C.2       1 <0>         0.3349
     32 O3          2.3284   -1.6026   -0.6639 O.2       1 <0>        -0.3571
     33 N2          2.1036    0.3432    3.5583 N.2       1 <0>        -0.4439
     34 C23         2.6111    0.2703    4.9307 C.3       1 <0>         0.0616
     35 C24         1.5776    0.8223    5.8785 C.2       1 <0>        -0.1445
     36 C25         1.1562    0.0956    6.8837 C.2       1 <0>        -0.1816
     37 C26         6.7357   -2.3775   -2.4916 C.3       1 <0>        -0.1089
     38 O4          0.8235   -4.2427   -4.0793 O.3       1 <0>        -0.3466
     39 C27         0.9455   -5.6426   -3.8196 C.3       1 <0>         0.0325
     40 O5          1.3338   -1.4380   -5.6155 O.3       1 <0>        -0.3404
     41 C28         1.1938   -0.4294   -6.4964 C.2       1 <0>         0.6482
     42 O6          0.4558   -0.5566   -7.4533 O.2       1 <0>        -0.5705
     43 N3          1.8722    0.7212   -6.3167 N.am      1 <0>        -0.8274
     44 C29        -1.8256   -3.5457   -5.5504 C.3       1 <0>        -0.1090
     45 C30        -3.3073   -0.7128   -4.5096 C.3       1 <0>        -0.1529
     46 O7         -3.1892    0.3185   -2.1706 O.3       1 <0>        -0.5642
     47 O8         -0.7976   -2.3450   -1.3970 O.3       1 <0>        -0.3452
     48 C31        -0.9767   -3.5999   -0.7372 C.3       1 <0>         0.0427
     49 H7          0.9750    1.8260   -0.0223 H         1 <0>         0.0472
     50 H8         -0.5859    1.8043   -0.8774 H         1 <0>         0.0545
     51 H9         -0.5462    1.8402    0.9018 H         1 <0>         0.0559
     52 H10        -1.6422   -1.1650    0.9851 H         1 <0>         0.0592
     53 H11        -2.1626    0.3036    0.1338 H         1 <0>         0.0806
     54 H12        -0.1798   -0.8885   -4.0986 H         1 <0>         0.1044
     55 H13         3.4592   -3.4817   -6.0476 H         1 <0>         0.1120
     56 H14         2.6309   -3.2170   -3.1257 H         1 <0>         0.1591
     57 H15         5.3394   -2.8069   -4.6813 H         1 <0>         0.1249
     58 H16         5.7877   -1.8123    2.1673 H         1 <0>         0.1535
     59 H17         0.2505   -0.0863    2.1643 H         1 <0>         0.0900
     60 H18         0.5689   -1.6405    1.3754 H         1 <0>         0.0650
     61 H19         2.3177    0.7637    0.7776 H         1 <0>         0.1343
     62 H20         2.8203   -0.7685    5.1861 H         1 <0>         0.0868
     63 H21         3.5271    0.8557    5.0109 H         1 <0>         0.1030
     64 H22         1.1843    1.8169    5.7289 H         1 <0>         0.1141
     65 H23         0.4156    0.4911    7.5629 H         1 <0>         0.1028
     66 H24         1.5496   -0.8991    7.0332 H         1 <0>         0.0954
     67 H25         6.8326   -1.2918   -2.4857 H         1 <0>         0.0677
     68 H26         7.1613   -2.7853   -1.5747 H         1 <0>         0.0724
     69 H27         7.2671   -2.7851   -3.3516 H         1 <0>         0.0669
     70 H28         0.5218   -5.8689   -2.8412 H         1 <0>         0.0848
     71 H29         0.4095   -6.2024   -4.5860 H         1 <0>         0.0376
     72 H30         1.9984   -5.9243   -3.8336 H         1 <0>         0.0408
     73 H31         2.4613    0.8227   -5.5528 H         1 <0>         0.4077
     74 H32         1.7713    1.4479   -6.9513 H         1 <0>         0.4252
     75 H33        -2.7320   -3.3359   -4.9825 H         1 <0>         0.0657
     76 H34        -2.0423   -3.4833   -6.6168 H         1 <0>         0.0603
     77 H35        -1.4699   -4.5476   -5.3099 H         1 <0>         0.0641
     78 H36        -2.9141    0.2546   -4.8221 H         1 <0>         0.0534
     79 H37        -3.4904   -1.3315   -5.3880 H         1 <0>         0.0609
     80 H38        -4.2411   -0.5672   -3.9665 H         1 <0>         0.0675
     81 H39        -3.3799    0.9066   -2.9142 H         1 <0>         0.3816
     82 H40        -1.9110   -4.0538   -1.0673 H         1 <0>         0.0332
     83 H41        -0.1452   -4.2610   -0.9819 H         1 <0>         0.0860
     84 H42        -1.0103   -3.4421    0.3407 H         1 <0>         0.0313
     85 H43         5.5339   -0.9293    4.1916 H         1 <0>         0.4060
@<TRIPOS>BOND
     1    1    2 1
     2    1   49 1
     3    1   50 1
     4    1   51 1
     5    2    3 1
     6    2   30 1
     7    2    4 1
     8    4    5 1
     9    4   52 1
    10    4   53 1
    11    5    6 1
    12    5    7 1
    13    5   47 1
    14    7    8 1
    15    7    9 1
    16    7   46 1
    17    9   10 1
    18    9   11 1
    19    9   45 1
    20   11   12 2
    21   11   54 1
    22   12   13 1
    23   12   44 1
    24   13   14 1
    25   13   15 1
    26   13   40 1
    27   15   16 1
    28   15   17 1
    29   15   38 1
    30   17   18 2
    31   17   55 1
    32   18   19 1
    33   18   56 1
    34   19   20 2
    35   19   57 1
    36   20   21 1
    37   20   37 1
    38   21   22 2
    39   21   23 1
    40   23   24 2
    41   24   31 1
    42   24   25 1
    43   25   26 2
    44   25   58 1
    45   26   27 1
    46   26   28 1
    47   27   85 1
    48   28   33 2
    49   28   29 1
    50   29   30 1
    51   29   31 1
    52   29   61 1
    53   30   59 1
    54   30   60 1
    55   31   32 2
    56   33   34 1
    57   34   35 1
    58   34   62 1
    59   34   63 1
    60   35   36 2
    61   35   64 1
    62   36   65 1
    63   36   66 1
    64   37   67 1
    65   37   68 1
    66   37   69 1
    67   38   39 1
    68   39   70 1
    69   39   71 1
    70   39   72 1
    71   40   41 1
    72   41   42 2
    73   41   43 am
    74   43   73 1
    75   43   74 1
    76   44   75 1
    77   44   76 1
    78   44   77 1
    79   45   78 1
    80   45   79 1
    81   45   80 1
    82   46   81 1
    83   47   48 1
    84   48   82 1
    85   48   83 1
    86   48   84 1
@<TRIPOS>MOLECULE
CHEMBL378352__1
   85    86     0     0     0
SMALL
USER_CHARGES

@<TRIPOS>ATOM
      1 C1          0.1819    2.0109    0.0910 C.3       1 <0>        -0.1550
      2 C2         -0.1337    0.5112    0.0726 C.3       1 <0>        -0.0880
      3 H1          0.2581    0.0709   -0.8411 H         1 <0>         0.1058
      4 C3         -1.6527    0.3342    0.1335 C.3       1 <0>        -0.1333
      5 C4         -2.1782   -0.3728   -1.1128 C.3       1 <0>         0.0985
      6 H2         -3.1996   -0.7216   -0.9181 H         1 <0>         0.0581
      7 C5         -2.2159    0.5786   -2.3064 C.3       1 <0>         0.1175
      8 H3         -1.2302    1.0060   -2.4791 H         1 <0>         0.0616
      9 C6         -2.6554   -0.1962   -3.5591 C.3       1 <0>        -0.0791
     10 H4         -3.2367   -1.0602   -3.2486 H         1 <0>         0.0816
     11 C7         -1.4277   -0.6190   -4.3163 C.2       1 <0>        -0.1092
     12 C8         -1.4211   -1.5613   -5.2201 C.2       1 <0>        -0.1306
     13 C9         -0.1296   -1.9076   -5.9249 C.3       1 <0>         0.1568
     14 H5         -0.3133   -1.9424   -7.0017 H         1 <0>         0.0990
     15 C10         0.3734   -3.2690   -5.4556 C.3       1 <0>         0.1271
     16 H6          0.0955   -4.0297   -6.1886 H         1 <0>         0.0822
     17 C11         1.8751   -3.2493   -5.3159 C.2       1 <0>        -0.1642
     18 C12         2.4248   -3.1248   -4.1049 C.2       1 <0>        -0.1102
     19 C13         3.8761   -3.1216   -3.9518 C.2       1 <0>        -0.0401
     20 C14         4.4706   -3.1242   -2.7393 C.2       1 <0>        -0.1653
     21 C15         3.7086   -3.1776   -1.4953 C.2       1 <0>         0.5221
     22 O1          2.5476   -3.5653   -1.5231 O.2       1 <0>        -0.4649
     23 N1          4.2271   -2.8367   -0.3213 N.2       1 <0>        -0.5293
     24 C16         3.7149   -2.0223    0.5614 C.2       1 <0>         0.2755
     25 C17         4.3371   -1.9170    1.8291 C.2       1 <0>        -0.2555
     26 C18         3.8162   -1.1180    2.7988 C.2       1 <0>         0.2381
     27 O2          4.4187   -1.0734    4.0083 O.3       1 <0>        -0.4403
     28 C19         2.6290   -0.2904    2.5635 C.2       1 <0>         0.1859
     29 C20         2.0254   -0.1449    1.1966 C.3       1 <0>        -0.1221
     30 C21         0.5063   -0.1628    1.2881 C.3       1 <0>        -0.1142
     31 C22         2.4952   -1.2337    0.2741 C.2       1 <0>         0.3400
     32 O3          1.8596   -1.4547   -0.7279 O.2       1 <0>        -0.3593
     33 N2          2.1036    0.3432    3.5583 N.2       1 <0>        -0.4456
     34 C23         1.2375    1.4995    3.3152 C.3       1 <0>         0.0402
     35 C24         1.8233    2.7156    3.9852 C.2       1 <0>        -0.1451
     36 C25         2.0583    3.7988    3.2869 C.2       1 <0>        -0.1781
     37 C26         5.9823   -3.0655   -2.6703 C.3       1 <0>        -0.1090
     38 O4         -0.2101   -3.5995   -4.1944 O.3       1 <0>        -0.3471
     39 C27        -0.3799   -5.0024   -3.9823 C.3       1 <0>         0.0326
     40 O5          0.8544   -0.9098   -5.6501 O.3       1 <0>        -0.3403
     41 C28         0.9164    0.1366   -6.4950 C.2       1 <0>         0.6481
     42 O6          0.1553    0.2004   -7.4400 O.2       1 <0>        -0.5703
     43 N3          1.8227    1.1134   -6.2926 N.am      1 <0>        -0.8275
     44 C29        -2.6746   -2.3136   -5.5872 C.3       1 <0>        -0.1094
     45 C30        -3.5171    0.7270   -4.4256 C.3       1 <0>        -0.1531
     46 O7         -3.1545    1.6269   -2.0577 O.3       1 <0>        -0.5646
     47 O8         -1.3622   -1.5026   -1.4196 O.3       1 <0>        -0.3448
     48 C31        -1.7907   -2.7153   -0.7969 C.3       1 <0>         0.0424
     49 H7          1.2616    2.1555    0.0512 H         1 <0>         0.0483
     50 H8         -0.2809    2.4903   -0.7716 H         1 <0>         0.0617
     51 H9         -0.2104    2.4536    1.0065 H         1 <0>         0.0558
     52 H10        -1.9091   -0.2582    1.0161 H         1 <0>         0.0590
     53 H11        -2.1225    1.3161    0.2233 H         1 <0>         0.0819
     54 H12        -0.4902   -0.1113   -4.0853 H         1 <0>         0.1040
     55 H13         2.4996   -3.3348   -6.1914 H         1 <0>         0.1120
     56 H14         1.7846   -3.0078   -3.2460 H         1 <0>         0.1587
     57 H15         4.4977   -3.1160   -4.8434 H         1 <0>         0.1247
     58 H16         5.2366   -2.4818    2.0229 H         1 <0>         0.1590
     59 H17         0.1830    0.3594    2.1899 H         1 <0>         0.0854
     60 H18         0.1587   -1.1978    1.3451 H         1 <0>         0.0733
     61 H19         2.3632    0.8088    0.7887 H         1 <0>         0.1309
     62 H20         1.1611    1.6770    2.2425 H         1 <0>         0.0793
     63 H21         0.2458    1.3026    3.7224 H         1 <0>         0.1037
     64 H22         2.0494    2.6942    5.0411 H         1 <0>         0.1189
     65 H23         2.4782    4.6703    3.7671 H         1 <0>         0.1068
     66 H24         1.8323    3.8202    2.2311 H         1 <0>         0.0970
     67 H25         6.3041   -2.0248   -2.6316 H         1 <0>         0.0677
     68 H26         6.3256   -3.5856   -1.7760 H         1 <0>         0.0732
     69 H27         6.4052   -3.5440   -3.5537 H         1 <0>         0.0667
     70 H28        -0.8282   -5.1703   -3.0031 H         1 <0>         0.0846
     71 H29        -1.0314   -5.4105   -4.7550 H         1 <0>         0.0377
     72 H30         0.5906   -5.4967   -4.0271 H         1 <0>         0.0411
     73 H31         2.4303    1.0626   -5.5382 H         1 <0>         0.4075
     74 H32         1.8674    1.8673   -6.9013 H         1 <0>         0.4252
     75 H33        -3.5094   -1.9398   -4.9943 H         1 <0>         0.0656
     76 H34        -2.8878   -2.1694   -6.6464 H         1 <0>         0.0607
     77 H35        -2.5330   -3.3755   -5.3864 H         1 <0>         0.0645
     78 H36        -2.9347    1.6017   -4.7151 H         1 <0>         0.0534
     79 H37        -3.8375    0.1918   -5.3195 H         1 <0>         0.0614
     80 H38        -4.3925    1.0445   -3.8590 H         1 <0>         0.0674
     81 H39        -3.2281    2.2679   -2.7780 H         1 <0>         0.3822
     82 H40        -2.8037   -2.9524   -1.1220 H         1 <0>         0.0341
     83 H41        -1.1192   -3.5260   -1.0798 H         1 <0>         0.0871
     84 H42        -1.7760   -2.5925    0.2861 H         1 <0>         0.0306
     85 H43         5.2003   -1.6382    4.0794 H         1 <0>         0.4113
@<TRIPOS>BOND
     1    1    2 1
     2    1   49 1
     3    1   50 1
     4    1   51 1
     5    2    3 1
     6    2   30 1
     7    2    4 1
     8    4    5 1
     9    4   52 1
    10    4   53 1
    11    5    6 1
    12    5    7 1
    13    5   47 1
    14    7    8 1
    15    7    9 1
    16    7   46 1
    17    9   10 1
    18    9   11 1
    19    9   45 1
    20   11   12 2
    21   11   54 1
    22   12   13 1
    23   12   44 1
    24   13   14 1
    25   13   15 1
    26   13   40 1
    27   15   16 1
    28   15   17 1
    29   15   38 1
    30   17   18 2
    31   17   55 1
    32   18   19 1
    33   18   56 1
    34   19   20 2
    35   19   57 1
    36   20   21 1
    37   20   37 1
    38   21   22 2
    39   21   23 1
    40   23   24 2
    41   24   31 1
    42   24   25 1
    43   25   26 2
    44   25   58 1
    45   26   27 1
    46   26   28 1
    47   27   85 1
    48   28   33 2
    49   28   29 1
    50   29   30 1
    51   29   31 1
    52   29   61 1
    53   30   59 1
    54   30   60 1
    55   31   32 2
    56   33   34 1
    57   34   35 1
    58   34   62 1
    59   34   63 1
    60   35   36 2
    61   35   64 1
    62   36   65 1
    63   36   66 1
    64   37   67 1
    65   37   68 1
    66   37   69 1
    67   38   39 1
    68   39   70 1
    69   39   71 1
    70   39   72 1
    71   40   41 1
    72   41   42 2
    73   41   43 am
    74   43   73 1
    75   43   74 1
    76   44   75 1
    77   44   76 1
    78   44   77 1
    79   45   78 1
    80   45   79 1
    81   45   80 1
    82   46   81 1
    83   47   48 1
    84   48   82 1
    85   48   83 1
    86   48   84 1
@<TRIPOS>MOLECULE
CHEMBL191786
   54    56     0     0     0
SMALL
USER_CHARGES

@<TRIPOS>ATOM
      1 C1         -0.4076    1.7002    0.6068 C.3       1 <0>        -0.1512
      2 C2         -0.3026    0.1747    0.5541 C.3       1 <0>         0.0834
      3 C3          0.3350   -0.3376    1.8472 C.3       1 <0>        -0.1768
      4 O1         -1.6083   -0.3880    0.4114 O.3       1 <0>        -0.3753
      5 C4         -1.6323   -1.6286   -0.2975 C.3       1 <0>         0.0502
      6 C5         -3.0730   -2.1355   -0.3896 C.3       1 <0>         0.1089
      7 N1         -3.0976   -3.4073   -1.1163 N.pl3     1 <0>        -0.4438
      8 C6         -3.2375   -3.5660   -2.4756 C.ar      1 <0>         0.3417
      9 C7         -3.2042   -4.9494   -2.7135 C.ar      1 <0>        -0.1041
     10 C8         -3.3284   -5.3987   -4.0381 C.ar      1 <0>         0.5423
     11 N2         -3.4715   -4.4963   -5.0036 N.ar      1 <0>        -0.6025
     12 C9         -3.4975   -3.2024   -4.7322 C.ar      1 <0>         0.5689
     13 N3         -3.3839   -2.7364   -3.5032 N.ar      1 <0>        -0.5718
     14 F1         -3.6447   -2.3262   -5.7499 F         1 <0>        -0.0687
     15 N4         -3.3019   -6.7523   -4.3321 N.pl3     1 <0>        -0.8064
     16 N5         -3.0483   -5.5620   -1.5124 N.2       1 <0>        -0.4382
     17 C10        -2.9795   -4.6564   -0.5682 C.2       1 <0>         0.2375
     18 S1         -2.7713   -4.9950    1.1484 S.3       1 <0>         0.1415
     19 C11        -2.8464   -6.7525    1.2484 C.ar      1 <0>        -0.0951
     20 C12        -1.6818   -7.4882    1.4254 C.ar      1 <0>        -0.1272
     21 C13        -1.7402   -8.8705    1.5041 C.ar      1 <0>         0.1223
     22 C14        -2.9646   -9.5212    1.4059 C.ar      1 <0>         0.0969
     23 C15        -4.1299   -8.7851    1.2293 C.ar      1 <0>         0.1159
     24 C16        -4.0711   -7.4015    1.1559 C.ar      1 <0>        -0.0216
     25 Cl1        -5.5273   -6.4810    0.9418 Cl        1 <0>        -0.0250
     26 O2         -5.3283   -9.4212    1.1326 O.3       1 <0>        -0.3163
     27 C17        -5.7811   -9.7557   -0.1808 C.3       1 <0>         0.0362
     28 O3         -3.0221  -10.8795    1.4824 O.3       1 <0>        -0.3157
     29 C18        -3.2769  -11.4467    2.7690 C.3       1 <0>         0.0372
     30 O4         -0.5993   -9.5905    1.6771 O.3       1 <0>        -0.2953
     31 C19         0.6233   -8.8566    1.7695 C.3       1 <0>         0.0189
     32 H1          0.5885    2.1294    0.7156 H         1 <0>         0.0720
     33 H2         -0.8617    2.0651   -0.3144 H         1 <0>         0.0631
     34 H3         -1.0242    1.9928    1.4566 H         1 <0>         0.0660
     35 H4          0.3141   -0.1180   -0.2957 H         1 <0>         0.0610
     36 H5          1.3310    0.0916    1.9561 H         1 <0>         0.0679
     37 H6         -0.2817   -0.0449    2.6971 H         1 <0>         0.0668
     38 H7          0.4098   -1.4243    1.8097 H         1 <0>         0.0565
     39 H8         -1.2341   -1.4812   -1.3014 H         1 <0>         0.0590
     40 H9         -1.0225   -2.3611    0.2314 H         1 <0>         0.0586
     41 H10        -3.4712   -2.2829    0.6143 H         1 <0>         0.1111
     42 H11        -3.6828   -1.4030   -0.9184 H         1 <0>         0.1151
     43 H12        -3.1966   -7.4016   -3.6192 H         1 <0>         0.4229
     44 H13        -3.3886   -7.0508   -5.2510 H         1 <0>         0.4152
     45 H14        -0.7304   -6.9829    1.5014 H         1 <0>         0.1566
     46 H15        -6.7845  -10.1775   -0.1228 H         1 <0>         0.1016
     47 H16        -5.7996   -8.8577   -0.7984 H         1 <0>         0.0501
     48 H17        -5.1046  -10.4870   -0.6231 H         1 <0>         0.0555
     49 H18        -3.2104  -12.5329    2.7069 H         1 <0>         0.0996
     50 H19        -2.5391  -11.0776    3.4814 H         1 <0>         0.0492
     51 H20        -4.2757  -11.1622    3.1001 H         1 <0>         0.0546
     52 H21         0.7739   -8.2847    0.8539 H         1 <0>         0.0610
     53 H22         0.5751   -8.1758    2.6193 H         1 <0>         0.0611
     54 H23         1.4536   -9.5496    1.9058 H         1 <0>         0.1088
@<TRIPOS>BOND
     1    1    2 1
     2    1   32 1
     3    1   33 1
     4    1   34 1
     5    2    3 1
     6    2    4 1
     7    2   35 1
     8    3   36 1
     9    3   37 1
    10    3   38 1
    11    4    5 1
    12    5    6 1
    13    5   39 1
    14    5   40 1
    15    6    7 1
    16    6   41 1
    17    6   42 1
    18    7   17 1
    19    7    8 1
    20    8   13 ar
    21    8    9 ar
    22    9   10 ar
    23    9   16 1
    24   10   11 ar
    25   10   15 1
    26   11   12 ar
    27   12   13 ar
    28   12   14 1
    29   15   43 1
    30   15   44 1
    31   16   17 2
    32   17   18 1
    33   18   19 1
    34   19   24 ar
    35   19   20 ar
    36   20   21 ar
    37   20   45 1
    38   21   22 ar
    39   21   30 1
    40   22   23 ar
    41   22   28 1
    42   23   24 ar
    43   23   26 1
    44   24   25 1
    45   26   27 1
    46   27   46 1
    47   27   47 1
    48   27   48 1
    49   28   29 1
    50   29   49 1
    51   29   50 1
    52   29   51 1
    53   30   31 1
    54   31   52 1
    55   31   53 1
    56   31   54 1
@<TRIPOS>MOLECULE
CHEMBL209356
   80    81     0     0     0
SMALL
USER_CHARGES

@<TRIPOS>ATOM
      1 C1         -0.0187    1.5266    0.0104 C.3       1 <0>        -0.1398
      2 C2          0.0021   -0.0041    0.0020 C.3       1 <0>        -0.0805
      3 H1          0.5127   -0.3499   -0.8956 H         1 <0>         0.0946
      4 C3         -1.4330   -0.5323    0.0170 C.3       1 <0>        -0.0549
      5 C4         -2.1412   -0.0791   -1.2370 C.ar      1 <0>        -0.1422
      6 C5         -3.1962    0.8196   -1.1951 C.ar      1 <0>         0.1950
      7 C6         -3.8219    1.2085   -2.3823 C.ar      1 <0>         0.0451
      8 C7         -3.3945    0.6966   -3.5947 C.ar      1 <0>        -0.1267
      9 C8         -2.3423   -0.2063   -3.6395 C.ar      1 <0>         0.1113
     10 C9         -1.7163   -0.5887   -2.4586 C.ar      1 <0>         0.1264
     11 O1         -0.6654   -1.4532   -2.4664 O.3       1 <0>        -0.4778
     12 N1         -1.8869   -0.6987   -4.8698 N.am      1 <0>        -0.6824
     13 C10        -1.2212   -1.8458   -4.9232 C.2       1 <0>         0.5854
     14 O2         -1.6258   -2.7958   -4.2805 O.2       1 <0>        -0.5267
     15 C11        -0.0038   -2.0588   -5.6962 C.2       1 <0>        -0.1919
     16 C12         0.6896   -3.1998   -5.4674 C.2       1 <0>        -0.0127
     17 C13         1.9092   -3.5396   -6.1691 C.2       1 <0>        -0.1089
     18 C14         2.9509   -4.1662   -5.6423 C.2       1 <0>        -0.1569
     19 C15         3.0709   -4.5999   -4.2115 C.3       1 <0>         0.1290
     20 H2          3.4511   -5.6313   -4.1936 H         1 <0>         0.0861
     21 C16         4.0775   -3.7113   -3.4762 C.3       1 <0>         0.1592
     22 H3          5.0840   -3.9501   -3.8262 H         1 <0>         0.0970
     23 C17         4.0064   -3.9606   -1.9872 C.2       1 <0>        -0.1644
     24 C18         3.1589   -3.2847   -1.2552 C.2       1 <0>        -0.0886
     25 C19         3.0296   -3.4606    0.2334 C.3       1 <0>        -0.0902
     26 H4          3.9990   -3.7542    0.6561 H         1 <0>         0.0725
     27 C20         2.6336   -2.1369    0.8846 C.3       1 <0>         0.1197
     28 H5          3.1074   -2.0780    1.8722 H         1 <0>         0.0576
     29 C21         1.1277   -1.9805    1.0514 C.3       1 <0>         0.1018
     30 H6          0.6011   -2.3664    0.1826 H         1 <0>         0.0761
     31 C22         0.7710   -0.4945    1.2287 C.3       1 <0>        -0.1306
     32 O3          0.6950   -2.6689    2.2322 O.3       1 <0>        -0.3827
     33 C23        -0.6408   -3.1708    2.1557 C.3       1 <0>         0.0290
     34 O4          3.1399   -1.0617    0.0835 O.3       1 <0>        -0.5513
     35 C24         2.0156   -4.5610    0.5375 C.3       1 <0>        -0.1335
     36 C25         4.9246   -4.9894   -1.3843 C.3       1 <0>        -0.1133
     37 O5          3.7960   -2.3392   -3.7487 O.3       1 <0>        -0.3364
     38 C26         4.8390   -1.4878   -3.7403 C.2       1 <0>         0.6511
     39 O6          5.9580   -1.9003   -3.5077 O.2       1 <0>        -0.5759
     40 N2          4.6419   -0.1782   -3.9900 N.am      1 <0>        -0.8251
     41 O7          1.8221   -4.5694   -3.5336 O.3       1 <0>        -0.3514
     42 C27         1.0881   -5.7930   -3.6122 C.3       1 <0>         0.0246
     43 C28         0.4633   -1.0448   -6.7029 C.3       1 <0>        -0.1079
     44 O8         -4.8554    2.0946   -2.3425 O.3       1 <0>        -0.4901
     45 N3         -3.6486    1.3462    0.0228 N.pl3     1 <0>        -0.8694
     46 H7          1.0039    1.9039    0.0027 H         1 <0>         0.0525
     47 H8         -0.5459    1.8877   -0.8726 H         1 <0>         0.0513
     48 H9         -0.5289    1.8782    0.9072 H         1 <0>         0.0449
     49 H10        -1.4165   -1.6259    0.0464 H         1 <0>         0.0661
     50 H11        -1.9485   -0.1657    0.9032 H         1 <0>         0.0608
     51 H12        -3.8786    0.9973   -4.5129 H         1 <0>         0.1333
     52 H13        -0.9196   -2.3821   -2.3795 H         1 <0>         0.3858
     53 H14        -2.0728   -0.1917   -5.6934 H         1 <0>         0.4126
     54 H15         0.2514   -3.8848   -4.7423 H         1 <0>         0.1455
     55 H16         1.9867   -3.2711   -7.2314 H         1 <0>         0.1159
     56 H17         3.7910   -4.3810   -6.3137 H         1 <0>         0.1212
     57 H18         2.5074   -2.5641   -1.7475 H         1 <0>         0.1244
     58 H19         1.6748    0.0937    1.3598 H         1 <0>         0.0799
     59 H20         0.1395   -0.3864    2.1142 H         1 <0>         0.0612
     60 H21        -0.8922   -3.6778    3.0873 H         1 <0>         0.0852
     61 H22        -1.3313   -2.3429    1.9948 H         1 <0>         0.0427
     62 H23        -0.7176   -3.8744    1.3268 H         1 <0>         0.0422
     63 H24         4.1019   -1.0633   -0.0143 H         1 <0>         0.3775
     64 H25         2.3509   -5.4973    0.0915 H         1 <0>         0.0549
     65 H26         1.9259   -4.6842    1.6168 H         1 <0>         0.0644
     66 H27         1.0462   -4.2868    0.1212 H         1 <0>         0.0553
     67 H28         5.8572   -4.5122   -1.0833 H         1 <0>         0.0663
     68 H29         4.4470   -5.4359   -0.5121 H         1 <0>         0.0654
     69 H30         5.1344   -5.7651   -2.1207 H         1 <0>         0.0583
     70 H31         3.7486    0.1511   -4.1758 H         1 <0>         0.4083
     71 H32         5.3933    0.4352   -3.9840 H         1 <0>         0.4240
     72 H33         0.8814   -6.0262   -4.6567 H         1 <0>         0.0423
     73 H34         1.6748   -6.5978   -3.1694 H         1 <0>         0.0431
     74 H35         0.1480   -5.6882   -3.0704 H         1 <0>         0.0900
     75 H36         1.1227   -0.3264   -6.2158 H         1 <0>         0.0699
     76 H37         1.0041   -1.5499   -7.5032 H         1 <0>         0.0673
     77 H38        -0.3982   -0.5229   -7.1195 H         1 <0>         0.0580
     78 H39        -4.5831    3.0198   -2.4124 H         1 <0>         0.3810
     79 H40        -3.2222    1.0828    0.8533 H         1 <0>         0.3971
     80 H41        -4.3879    1.9740    0.0349 H         1 <0>         0.4019
@<TRIPOS>BOND
     1    1    2 1
     2    1   46 1
     3    1   47 1
     4    1   48 1
     5    2    3 1
     6    2   31 1
     7    2    4 1
     8    4    5 1
     9    4   49 1
    10    4   50 1
    11    5   10 ar
    12    5    6 ar
    13    6    7 ar
    14    6   45 1
    15    7    8 ar
    16    7   44 1
    17    8    9 ar
    18    8   51 1
    19    9   10 ar
    20    9   12 1
    21   10   11 1
    22   11   52 1
    23   12   13 am
    24   12   53 1
    25   13   14 2
    26   13   15 1
    27   15   16 2
    28   15   43 1
    29   16   17 1
    30   16   54 1
    31   17   18 2
    32   17   55 1
    33   18   19 1
    34   18   56 1
    35   19   20 1
    36   19   21 1
    37   19   41 1
    38   21   22 1
    39   21   23 1
    40   21   37 1
    41   23   24 2
    42   23   36 1
    43   24   25 1
    44   24   57 1
    45   25   26 1
    46   25   27 1
    47   25   35 1
    48   27   28 1
    49   27   29 1
    50   27   34 1
    51   29   30 1
    52   29   31 1
    53   29   32 1
    54   31   58 1
    55   31   59 1
    56   32   33 1
    57   33   60 1
    58   33   61 1
    59   33   62 1
    60   34   63 1
    61   35   64 1
    62   35   65 1
    63   35   66 1
    64   36   67 1
    65   36   68 1
    66   36   69 1
    67   37   38 1
    68   38   39 2
    69   38   40 am
    70   40   70 1
    71   40   71 1
    72   41   42 1
    73   42   72 1
    74   42   73 1
    75   42   74 1
    76   43   75 1
    77   43   76 1
    78   43   77 1
    79   44   78 1
    80   45   79 1
    81   45   80 1
@<TRIPOS>MOLECULE
CHEMBL191074
   40    43     0     0     0
SMALL
USER_CHARGES

@<TRIPOS>ATOM
      1 C1         -0.2407    1.4904    0.0044 C.3       1 <0>        -0.0971
      2 C2         -0.0932   -0.0094   -0.0005 C.2       1 <0>         0.1090
      3 C3          0.0603   -0.7970   -1.1018 C.2       1 <0>        -0.1884
      4 C4          0.1611   -2.1388   -0.6553 C.2       1 <0>         0.1322
      5 N1          0.0700   -2.1344    0.6568 N.2       1 <0>        -0.2537
      6 N2         -0.0837   -0.8104    1.0852 N.pl3     1 <0>        -0.4674
      7 H1         -0.1705   -0.5186    2.0062 H         1 <0>         0.4429
      8 C5          0.3374   -3.3340   -1.5144 C.ar      1 <0>        -0.0365
      9 C6          1.3013   -3.3350   -2.5211 C.ar      1 <0>        -0.0501
     10 C7          1.4635   -4.4491   -3.3190 C.ar      1 <0>        -0.0723
     11 C8          0.6678   -5.5713   -3.1214 C.ar      1 <0>         0.1439
     12 C9         -0.2935   -5.5773   -2.1221 C.ar      1 <0>        -0.1632
     13 C10        -0.4590   -4.4658   -1.3132 C.ar      1 <0>         0.1565
     14 O1         -1.3965   -4.4727   -0.3297 O.3       1 <0>        -0.4796
     15 O2          0.8319   -6.6657   -3.9102 O.3       1 <0>        -0.4841
     16 Cl1         2.6641   -4.4487   -4.5729 Cl        1 <0>        -0.0487
     17 C11         0.1119   -0.3348   -2.5109 C.ar      1 <0>        -0.0001
     18 C12        -0.9112   -0.6727   -3.3945 C.ar      1 <0>        -0.0974
     19 C13        -0.8606   -0.2431   -4.7047 C.ar      1 <0>        -0.1090
     20 C14         0.2068    0.5259   -5.1474 C.ar      1 <0>         0.0516
     21 C15         1.2293    0.8680   -4.2690 C.ar      1 <0>         0.0538
     22 C16         1.1803    0.4425   -2.9518 C.ar      1 <0>        -0.1032
     23 O3          2.2794    1.6281   -4.6848 O.3       1 <0>        -0.3072
     24 C17         2.4815    1.7287   -6.0985 C.3       1 <0>         0.0203
     25 C18         1.1259    2.0147   -6.7584 C.3       1 <0>         0.0203
     26 O4          0.2386    0.9355   -6.4456 O.3       1 <0>        -0.3068
     27 H2          0.7444    1.9522    0.0711 H         1 <0>         0.0853
     28 H3         -0.7305    1.8103   -0.9153 H         1 <0>         0.0894
     29 H4         -0.8428    1.7934    0.8610 H         1 <0>         0.0750
     30 H5          1.9207   -2.4641   -2.6769 H         1 <0>         0.1442
     31 H6         -0.9106   -6.4508   -1.9719 H         1 <0>         0.1492
     32 H7         -2.2651   -4.1552   -0.6121 H         1 <0>         0.3934
     33 H8          1.4737   -7.3036   -3.5692 H         1 <0>         0.3976
     34 H9         -1.7434   -1.2710   -3.0540 H         1 <0>         0.1289
     35 H10        -1.6541   -0.5064   -5.3883 H         1 <0>         0.1357
     36 H11         1.9724    0.7097   -2.2679 H         1 <0>         0.1334
     37 H12         3.1742    2.5423   -6.3138 H         1 <0>         0.1228
     38 H13         2.8854    0.7908   -6.4798 H         1 <0>         0.0786
     39 H14         0.7188    2.9491   -6.3720 H         1 <0>         0.0780
     40 H15         1.2508    2.0865   -7.8389 H         1 <0>         0.1227
@<TRIPOS>BOND
     1    1    2 1
     2    1   27 1
     3    1   28 1
     4    1   29 1
     5    2    6 1
     6    2    3 2
     7    3    4 1
     8    3   17 1
     9    4    5 2
    10    4    8 1
    11    5    6 1
    12    6    7 1
    13    8   13 ar
    14    8    9 ar
    15    9   10 ar
    16    9   30 1
    17   10   11 ar
    18   10   16 1
    19   11   12 ar
    20   11   15 1
    21   12   13 ar
    22   12   31 1
    23   13   14 1
    24   14   32 1
    25   15   33 1
    26   17   22 ar
    27   17   18 ar
    28   18   19 ar
    29   18   34 1
    30   19   20 ar
    31   19   35 1
    32   20   26 1
    33   20   21 ar
    34   21   22 ar
    35   21   23 1
    36   22   36 1
    37   23   24 1
    38   24   25 1
    39   24   37 1
    40   24   38 1
    41   25   26 1
    42   25   39 1
    43   25   40 1
@<TRIPOS>MOLECULE
CHEMBL191074__1
   40    43     0     0     0
SMALL
USER_CHARGES

@<TRIPOS>ATOM
      1 C1         -0.0127    1.0858    0.0080 C.3       1 <0>        -0.0776
      2 C2         -0.7416    1.5850   -1.2129 C.2       1 <0>         0.0949
      3 C3         -0.1564    1.8682   -2.4597 C.2       1 <0>        -0.1588
      4 C4         -1.1714    2.3003   -3.3033 C.2       1 <0>         0.1391
      5 N1         -2.3272    2.2755   -2.5808 N.pl3     1 <0>        -0.4657
      6 N2         -2.0239    1.8219   -1.2919 N.2       1 <0>        -0.2802
      7 H1         -3.2069    2.5249   -2.9046 H         1 <0>         0.4416
      8 C5         -1.0263    2.7094   -4.7145 C.ar      1 <0>        -0.0649
      9 C6         -1.2773    4.0307   -5.0904 C.ar      1 <0>        -0.0592
     10 C7         -1.1402    4.4090   -6.4093 C.ar      1 <0>        -0.0744
     11 C8         -0.7525    3.4785   -7.3669 C.ar      1 <0>         0.1508
     12 C9         -0.5017    2.1641   -7.0022 C.ar      1 <0>        -0.1619
     13 C10        -0.6306    1.7749   -5.6802 C.ar      1 <0>         0.1687
     14 O1         -0.3793    0.4891   -5.3210 O.3       1 <0>        -0.4775
     15 O2         -0.6193    3.8581   -8.6648 O.3       1 <0>        -0.4838
     16 Cl1        -1.4531    6.0517   -6.8756 Cl        1 <0>        -0.0448
     17 C11         1.2781    1.7313   -2.8089 C.ar      1 <0>         0.0065
     18 C12         2.0315    2.8612   -3.1236 C.ar      1 <0>        -0.1020
     19 C13         3.3659    2.7313   -3.4490 C.ar      1 <0>        -0.1128
     20 C14         3.9630    1.4783   -3.4642 C.ar      1 <0>         0.0488
     21 C15         3.2168    0.3478   -3.1487 C.ar      1 <0>         0.0523
     22 C16         1.8779    0.4736   -2.8176 C.ar      1 <0>        -0.0850
     23 O3          3.7889   -0.8875   -3.1513 O.3       1 <0>        -0.3071
     24 C17         5.0355   -1.0182   -3.8431 C.3       1 <0>         0.0210
     25 C18         5.9379    0.1533   -3.4325 C.3       1 <0>         0.0203
     26 O4          5.2804    1.3730   -3.7925 O.3       1 <0>        -0.3086
     27 H2          0.0021   -0.0041    0.0020 H         1 <0>         0.0805
     28 H3          1.0099    1.4631    0.0003 H         1 <0>         0.0801
     29 H4         -0.5229    1.4373    0.9048 H         1 <0>         0.0764
     30 H5         -1.5790    4.7555   -4.3487 H         1 <0>         0.1449
     31 H6         -0.2011    1.4447   -7.7496 H         1 <0>         0.1508
     32 H7         -1.1528   -0.0896   -5.3639 H         1 <0>         0.3956
     33 H8          0.2666    4.1705   -8.8943 H         1 <0>         0.4003
     34 H9          1.5709    3.8380   -3.1123 H         1 <0>         0.1271
     35 H10         3.9479    3.6077   -3.6931 H         1 <0>         0.1336
     36 H11         1.2978   -0.4032   -2.5702 H         1 <0>         0.1325
     37 H12         5.5101   -1.9609   -3.5706 H         1 <0>         0.1220
     38 H13         4.8635   -0.9902   -4.9191 H         1 <0>         0.0769
     39 H14         6.1042    0.1293   -2.3555 H         1 <0>         0.0779
     40 H15         6.8924    0.0824   -3.9541 H         1 <0>         0.1217
@<TRIPOS>BOND
     1    1   27 1
     2    1   28 1
     3    1   29 1
     4    1    2 1
     5    2    6 2
     6    2    3 1
     7    3   17 1
     8    3    4 2
     9    4    8 1
    10    4    5 1
    11    5    6 1
    12    5    7 1
    13    8   13 ar
    14    8    9 ar
    15    9   10 ar
    16    9   30 1
    17   10   11 ar
    18   10   16 1
    19   11   12 ar
    20   11   15 1
    21   12   13 ar
    22   12   31 1
    23   13   14 1
    24   14   32 1
    25   15   33 1
    26   17   22 ar
    27   17   18 ar
    28   18   19 ar
    29   18   34 1
    30   19   20 ar
    31   19   35 1
    32   20   26 1
    33   20   21 ar
    34   21   22 ar
    35   21   23 1
    36   22   36 1
    37   23   24 1
    38   24   25 1
    39   24   37 1
    40   24   38 1
    41   25   26 1
    42   25   39 1
    43   25   40 1
@<TRIPOS>MOLECULE
CHEMBL421647
   84    85     0     0     0
SMALL
USER_CHARGES

@<TRIPOS>ATOM
      1 C1         -0.0790    1.6487    0.1964 C.3       1 <0>        -0.1411
      2 C2         -0.0338    0.1206    0.2460 C.3       1 <0>        -0.0804
      3 H1         -1.0482   -0.2706    0.2161 H         1 <0>         0.0898
      4 C3          0.7556   -0.4024   -0.9519 C.3       1 <0>        -0.1297
      5 C4         -0.1354   -0.5820   -2.1760 C.3       1 <0>         0.1047
      6 H2          0.4910   -0.8983   -3.0187 H         1 <0>         0.0598
      7 C5         -1.2014   -1.6473   -1.9384 C.3       1 <0>         0.1155
      8 H3         -1.7456   -1.4334   -1.0206 H         1 <0>         0.0771
      9 C6         -2.1926   -1.6703   -3.1091 C.3       1 <0>        -0.0904
     10 H4         -2.0630   -0.7698   -3.6978 H         1 <0>         0.0934
     11 C7         -3.5909   -1.7797   -2.5645 C.2       1 <0>        -0.1133
     12 C8         -4.5865   -1.0352   -2.9545 C.2       1 <0>        -0.1355
     13 C9         -5.9452   -1.2133   -2.2994 C.3       1 <0>         0.1200
     14 H5         -6.3241   -2.2048   -2.5333 H         1 <0>         0.1008
     15 C10        -5.7926   -1.0575   -0.7868 C.3       1 <0>         0.1198
     16 H6         -5.7227   -2.0455   -0.3251 H         1 <0>         0.1275
     17 C11        -6.9642   -0.3149   -0.2063 C.2       1 <0>        -0.1487
     18 C12        -6.9045    0.1233    1.0600 C.2       1 <0>        -0.1186
     19 C13        -5.7264   -0.1699    1.8557 C.2       1 <0>        -0.0210
     20 C14        -5.2321    0.6394    2.8169 C.2       1 <0>        -0.1721
     21 C15        -4.0513    0.1832    3.5345 C.2       1 <0>         0.5139
     22 O1         -3.8016   -1.0087    3.4432 O.2       1 <0>        -0.4648
     23 N1         -3.2556    0.9340    4.2762 N.2       1 <0>        -0.4946
     24 C16        -1.9772    1.0187    4.1016 C.2       1 <0>         0.2185
     25 C17        -1.1709    1.8965    5.0259 C.3       1 <0>        -0.1210
     26 C18         0.2290    2.1243    4.5317 C.2       1 <0>         0.3982
     27 O2          0.9160    2.9570    5.0709 O.2       1 <0>        -0.4156
     28 C19         0.7945    1.3610    3.4062 C.2       1 <0>         0.1786
     29 C20         0.0501    0.4784    2.6988 C.2       1 <0>        -0.2530
     30 C21         0.6346   -0.3124    1.5558 C.3       1 <0>        -0.0474
     31 C22        -1.3199    0.2695    3.0109 C.2       1 <0>         0.3723
     32 O3         -1.9276   -0.5511    2.3485 O.2       1 <0>        -0.3948
     33 N2          2.1097    1.5741    3.0732 N.pl3     1 <0>        -0.6961
     34 C23         2.9101    2.5393    3.8308 C.3       1 <0>         0.0860
     35 C24         4.3289    2.5850    3.2599 C.3       1 <0>         0.0492
     36 F1          5.0931    3.5068    3.9834 F         1 <0>        -0.2027
     37 C25        -5.8654    1.9651    3.1318 C.3       1 <0>        -0.1067
     38 O4         -4.5909   -0.3245   -0.5188 O.3       1 <0>        -0.3471
     39 C26        -4.6372    1.0408   -0.9381 C.3       1 <0>         0.0240
     40 O5         -6.8336   -0.2202   -2.8074 O.3       1 <0>        -0.3499
     41 C27        -7.5420   -0.5388   -3.9071 C.2       1 <0>         0.6475
     42 O6         -7.4081   -1.6319   -4.4205 O.2       1 <0>        -0.5669
     43 N3         -8.3997    0.3548   -4.4385 N.am      1 <0>        -0.8272
     44 C28        -4.4416    0.0013   -4.0369 C.3       1 <0>        -0.1132
     45 C29        -1.8942   -2.8914   -3.9865 C.3       1 <0>        -0.1363
     46 O7         -0.5813   -2.9312   -1.8332 O.3       1 <0>        -0.5623
     47 O8         -0.7570    0.6559   -2.5207 O.3       1 <0>        -0.3687
     48 C30        -0.0016    1.4501   -3.4377 C.3       1 <0>         0.0307
     49 H7          0.9366    2.0434    0.2262 H         1 <0>         0.0417
     50 H8         -0.5660    1.9680   -0.7251 H         1 <0>         0.0670
     51 H9         -0.6399    2.0236    1.0525 H         1 <0>         0.0430
     52 H10         1.5512    0.3087   -1.1893 H         1 <0>         0.0592
     53 H11         1.2140   -1.3576   -0.6904 H         1 <0>         0.0780
     54 H12        -3.7825   -2.5350   -1.8004 H         1 <0>         0.1018
     55 H13        -7.8509   -0.1316   -0.7920 H         1 <0>         0.1303
     56 H14        -7.7296    0.6785    1.4760 H         1 <0>         0.1279
     57 H15        -5.2057   -1.1200    1.6878 H         1 <0>         0.1355
     58 H16        -1.6789    2.8563    5.1197 H         1 <0>         0.1456
     59 H17         0.4444   -1.3756    1.7174 H         1 <0>         0.0778
     60 H18         1.7055   -0.1541    1.4818 H         1 <0>         0.0588
     61 H19         2.4558    3.5272    3.7546 H         1 <0>         0.0918
     62 H20         2.5087    1.0854    2.3364 H         1 <0>         0.4108
     63 H21         2.9490    2.2371    4.8773 H         1 <0>         0.0875
     64 H22         4.7831    1.5971    3.3362 H         1 <0>         0.0812
     65 H23         4.2899    2.8872    2.2134 H         1 <0>         0.0812
     66 H24        -6.6247    1.8313    3.9023 H         1 <0>         0.0713
     67 H25        -5.1024    2.6563    3.4898 H         1 <0>         0.0674
     68 H26        -6.3284    2.3696    2.2317 H         1 <0>         0.0658
     69 H27        -3.6515    1.4908   -0.8200 H         1 <0>         0.0801
     70 H28        -4.9357    1.0894   -1.9853 H         1 <0>         0.0583
     71 H29        -5.3598    1.5837   -0.3288 H         1 <0>         0.0367
     72 H30        -8.5066    1.2274   -4.0287 H         1 <0>         0.4081
     73 H31        -8.9101    0.1253   -5.2308 H         1 <0>         0.4265
     74 H32        -3.3965    0.0667   -4.3397 H         1 <0>         0.0690
     75 H33        -5.0515   -0.2816   -4.8948 H         1 <0>         0.0577
     76 H34        -4.7718    0.9692   -3.6596 H         1 <0>         0.0665
     77 H35        -2.0021   -3.7998   -3.3937 H         1 <0>         0.0560
     78 H36        -2.5932   -2.9178   -4.8223 H         1 <0>         0.0521
     79 H37        -0.8750   -2.8250   -4.3671 H         1 <0>         0.0587
     80 H38        -1.2024   -3.6567   -1.6814 H         1 <0>         0.3826
     81 H39        -0.5412    2.3733   -3.6488 H         1 <0>         0.0857
     82 H40         0.9677    1.6879   -2.9994 H         1 <0>         0.0410
     83 H41         0.1449    0.8948   -4.3641 H         1 <0>         0.0403
     84 H42        -1.1306    1.4161    6.0041 H         1 <0>         0.1489
@<TRIPOS>BOND
     1    1    2 1
     2    1   49 1
     3    1   50 1
     4    1   51 1
     5    2    3 1
     6    2   30 1
     7    2    4 1
     8    4    5 1
     9    4   52 1
    10    4   53 1
    11    5    6 1
    12    5    7 1
    13    5   47 1
    14    7    8 1
    15    7    9 1
    16    7   46 1
    17    9   10 1
    18    9   11 1
    19    9   45 1
    20   11   12 2
    21   11   54 1
    22   12   13 1
    23   12   44 1
    24   13   14 1
    25   13   15 1
    26   13   40 1
    27   15   16 1
    28   15   17 1
    29   15   38 1
    30   17   18 2
    31   17   55 1
    32   18   19 1
    33   18   56 1
    34   19   20 2
    35   19   57 1
    36   20   21 1
    37   20   37 1
    38   21   22 2
    39   21   23 1
    40   23   24 2
    41   24   31 1
    42   24   25 1
    43   25   58 1
    44   25   84 1
    45   25   26 1
    46   26   27 2
    47   26   28 1
    48   28   33 1
    49   28   29 2
    50   29   31 1
    51   29   30 1
    52   30   59 1
    53   30   60 1
    54   31   32 2
    55   33   62 1
    56   33   34 1
    57   34   35 1
    58   34   63 1
    59   34   61 1
    60   35   36 1
    61   35   64 1
    62   35   65 1
    63   37   66 1
    64   37   67 1
    65   37   68 1
    66   38   39 1
    67   39   69 1
    68   39   70 1
    69   39   71 1
    70   40   41 1
    71   41   42 2
    72   41   43 am
    73   43   72 1
    74   43   73 1
    75   44   74 1
    76   44   75 1
    77   44   76 1
    78   45   77 1
    79   45   78 1
    80   45   79 1
    81   46   80 1
    82   47   48 1
    83   48   81 1
    84   48   82 1
    85   48   83 1
@<TRIPOS>MOLECULE
CHEMBL191241
   41    43     0     0     0
SMALL
USER_CHARGES

@<TRIPOS>ATOM
      1 C1         -2.2915    1.5156    2.3228 C.3       1 <0>         0.0258
      2 O1         -2.3446    0.0896    2.3992 O.3       1 <0>        -0.3149
      3 C2         -2.3848   -0.5902    1.2232 C.ar      1 <0>         0.1186
      4 C3         -2.3675    0.1021    0.0200 C.ar      1 <0>        -0.1700
      5 C4         -2.4087   -0.5875   -1.1769 C.ar      1 <0>        -0.0891
      6 C5         -2.4668   -1.9676   -1.1804 C.ar      1 <0>        -0.0860
      7 C6         -2.4844   -2.6661    0.0208 C.ar      1 <0>        -0.1015
      8 C7         -2.4372   -1.9748    1.2243 C.ar      1 <0>        -0.0831
      9 S1         -2.5590   -4.4265    0.0168 S.3       1 <0>         0.1107
     10 C8         -4.2774   -4.7806    0.1785 C.2       1 <0>         0.2336
     11 N1         -5.2353   -3.8865    0.1741 N.2       1 <0>        -0.4493
     12 C9         -6.4321   -4.5080    0.3191 C.ar      1 <0>        -0.1013
     13 C10        -7.7662   -4.0730    0.3836 C.ar      1 <0>         0.5089
     14 N2         -8.7228   -4.9830    0.5357 N.ar      1 <0>        -0.5909
     15 C11        -8.4351   -6.2687    0.6252 C.ar      1 <0>         0.3643
     16 N3         -7.1999   -6.7215    0.5698 N.ar      1 <0>        -0.5565
     17 C12        -6.1782   -5.8856    0.4191 C.ar      1 <0>         0.3118
     18 N4         -4.8137   -6.0316    0.3218 N.pl3     1 <0>        -0.4510
     19 C13        -4.0712   -7.2937    0.3667 C.3       1 <0>         0.1098
     20 C14        -3.7019   -7.6169    1.8159 C.3       1 <0>        -0.1318
     21 C15        -2.9264   -8.9349    1.8628 C.3       1 <0>        -0.0056
     22 C16        -2.5711   -9.2459    3.2570 C.1       1 <0>        -0.1930
     23 C17        -2.2878   -9.4938    4.3690 C.1       1 <0>        -0.1990
     24 N5         -8.0777   -2.7261    0.2911 N.pl3     1 <0>        -0.8180
     25 H1         -2.2634    1.9326    3.3295 H         1 <0>         0.1032
     26 H2         -1.3961    1.8172    1.7795 H         1 <0>         0.0575
     27 H3         -3.1746    1.8846    1.8012 H         1 <0>         0.0570
     28 H4         -2.3221    1.1811    0.0193 H         1 <0>         0.1345
     29 H5         -2.3959   -0.0463   -2.1114 H         1 <0>         0.1346
     30 H6         -2.4990   -2.5041   -2.1171 H         1 <0>         0.1352
     31 H7         -2.4459   -2.5151    2.1594 H         1 <0>         0.1384
     32 H8         -9.2428   -6.9750    0.7486 H         1 <0>         0.2061
     33 H9         -4.6906   -8.0943   -0.0376 H         1 <0>         0.1057
     34 H10        -3.1623   -7.2019   -0.2280 H         1 <0>         0.1002
     35 H11        -3.0825   -6.8163    2.2202 H         1 <0>         0.0781
     36 H12        -4.6107   -7.7087    2.4106 H         1 <0>         0.0770
     37 H13        -3.5458   -9.7355    1.4585 H         1 <0>         0.0919
     38 H14        -2.0175   -8.8431    1.2681 H         1 <0>         0.0922
     39 H15        -2.0344   -9.7156    5.3635 H         1 <0>         0.2177
     40 H16        -7.3707   -2.0713    0.1805 H         1 <0>         0.4178
     41 H17        -9.0028   -2.4379    0.3369 H         1 <0>         0.4107
@<TRIPOS>BOND
     1    1    2 1
     2    1   25 1
     3    1   26 1
     4    1   27 1
     5    2    3 1
     6    3    8 ar
     7    3    4 ar
     8    4    5 ar
     9    4   28 1
    10    5    6 ar
    11    5   29 1
    12    6    7 ar
    13    6   30 1
    14    7    8 ar
    15    7    9 1
    16    8   31 1
    17    9   10 1
    18   10   18 1
    19   10   11 2
    20   11   12 1
    21   12   17 ar
    22   12   13 ar
    23   13   14 ar
    24   13   24 1
    25   14   15 ar
    26   15   16 ar
    27   15   32 1
    28   16   17 ar
    29   17   18 1
    30   18   19 1
    31   19   20 1
    32   19   33 1
    33   19   34 1
    34   20   21 1
    35   20   35 1
    36   20   36 1
    37   21   22 1
    38   21   37 1
    39   21   38 1
    40   22   23 3
    41   23   39 1
    42   24   40 1
    43   24   41 1
@<TRIPOS>MOLECULE
CHEMBL384763
   49    52     0     0     0
SMALL
USER_CHARGES

@<TRIPOS>ATOM
      1 C1         -0.0187    1.5258    0.0104 C.3       1 <0>        -0.1795
      2 C2          0.0021   -0.0041    0.0020 C.3       1 <0>         0.0568
      3 C3          0.7421   -0.5109    1.2415 C.3       1 <0>        -0.1810
      4 C4         -1.4333   -0.5336    0.0129 C.3       1 <0>        -0.1764
      5 N1          0.6897   -0.4778   -1.2066 N.4       1 <0>        -0.4989
      6 C5          2.0678    0.0307   -1.2170 C.3       1 <0>        -0.0418
      7 C6          2.7840   -0.4628   -2.4758 C.3       1 <0>         0.0914
      8 N2          4.1584    0.0443   -2.4862 N.pl3     1 <0>        -0.4589
      9 C7          4.5838    1.2324   -3.0334 C.ar      1 <0>         0.3219
     10 C8          5.9687    1.2938   -2.8057 C.ar      1 <0>        -0.1084
     11 C9          6.6676    2.4202   -3.2695 C.ar      1 <0>         0.5227
     12 N3          5.9878    3.3725   -3.9002 N.ar      1 <0>        -0.5846
     13 C10         4.6854    3.2704   -4.0909 C.ar      1 <0>         0.3855
     14 N4          3.9896    2.2330   -3.6739 N.ar      1 <0>        -0.5705
     15 N5          8.0343    2.5363   -3.0736 N.pl3     1 <0>        -0.8055
     16 N6          6.3189    0.1634   -2.1434 N.2       1 <0>        -0.3788
     17 C11         5.2541   -0.5741   -1.9481 C.2       1 <0>         0.1965
     18 S1          5.2361   -2.1300   -1.1214 S.3       1 <0>         0.2563
     19 C12         6.9178   -2.3890   -0.6638 C.2       1 <0>         0.0687
     20 N7          7.9577   -1.6137   -0.8732 N.2       1 <0>        -0.4334
     21 C13         9.2016   -1.9419   -0.4619 C.ar      1 <0>         0.0833
     22 C14        10.3973   -1.2035   -0.6225 C.ar      1 <0>        -0.0434
     23 C15        11.5874   -1.6840   -0.1423 C.ar      1 <0>        -0.0989
     24 C16        11.6648   -2.9033    0.5151 C.ar      1 <0>        -0.0685
     25 C17        10.5144   -3.6525    0.6906 C.ar      1 <0>         0.0085
     26 C18         9.3175   -3.1785    0.2120 C.ar      1 <0>        -0.1404
     27 S2          7.6420   -3.7694    0.2104 S.3       1 <0>         0.1020
     28 Cl1        10.5840   -5.1817    1.5092 Cl        1 <0>        -0.0423
     29 H1          1.0039    1.9031    0.0027 H         1 <0>         0.0804
     30 H2         -0.5459    1.8868   -0.8726 H         1 <0>         0.0848
     31 H3         -0.5289    1.8773    0.9072 H         1 <0>         0.1077
     32 H4          0.2319   -0.1594    2.1383 H         1 <0>         0.1082
     33 H5          0.7568   -1.6008    1.2356 H         1 <0>         0.0857
     34 H6          1.7647   -0.1336    1.2338 H         1 <0>         0.0812
     35 H7         -1.9605   -0.1726   -0.8702 H         1 <0>         0.0838
     36 H8         -1.4185   -1.6235    0.0069 H         1 <0>         0.0840
     37 H9         -1.9435   -0.1821    0.9097 H         1 <0>         0.1084
     38 H10         0.7033   -1.4867   -1.2121 H         1 <0>         0.4288
     39 H11         2.0530    1.1205   -1.2110 H         1 <0>         0.1465
     40 H12         2.5950   -0.3304   -0.3340 H         1 <0>         0.1428
     41 H13         2.7987   -1.5526   -2.4818 H         1 <0>         0.1167
     42 H14         2.2568   -0.1017   -3.3589 H         1 <0>         0.1273
     43 H15         4.1716    4.0672   -4.6083 H         1 <0>         0.2125
     44 H16         8.5194    1.8348   -2.6116 H         1 <0>         0.4227
     45 H17         8.5060    3.3191   -3.3985 H         1 <0>         0.4168
     46 H18        10.3721   -0.2503   -1.1297 H         1 <0>         0.1418
     47 H19        12.4858   -1.1004   -0.2790 H         1 <0>         0.1510
     48 H20        12.6128   -3.2642    0.8857 H         1 <0>         0.1558
     49 H21         0.2017   -0.1436   -2.0240 H         1 <0>         0.4308
@<TRIPOS>BOND
     1    1    2 1
     2    1   29 1
     3    1   30 1
     4    1   31 1
     5    2    3 1
     6    2    4 1
     7    2    5 1
     8    3   32 1
     9    3   33 1
    10    3   34 1
    11    4   35 1
    12    4   36 1
    13    4   37 1
    14    5    6 1
    15    5   38 1
    16    5   49 1
    17    6    7 1
    18    6   39 1
    19    6   40 1
    20    7    8 1
    21    7   41 1
    22    7   42 1
    23    8   17 1
    24    8    9 1
    25    9   14 ar
    26    9   10 ar
    27   10   11 ar
    28   10   16 1
    29   11   12 ar
    30   11   15 1
    31   12   13 ar
    32   13   14 ar
    33   13   43 1
    34   15   44 1
    35   15   45 1
    36   16   17 2
    37   17   18 1
    38   18   19 1
    39   19   27 1
    40   19   20 2
    41   20   21 1
    42   21   26 ar
    43   21   22 ar
    44   22   23 ar
    45   22   46 1
    46   23   24 ar
    47   23   47 1
    48   24   25 ar
    49   24   48 1
    50   25   26 ar
    51   25   28 1
    52   26   27 1
@<TRIPOS>MOLECULE
CHEMBL215657
   52    55     0     0     0
SMALL
USER_CHARGES

@<TRIPOS>ATOM
      1 C1         -0.0187    1.5258    0.0104 C.3       1 <0>        -0.1670
      2 C2          0.0021   -0.0041    0.0020 C.3       1 <0>        -0.0876
      3 C3          0.7421   -0.5109    1.2415 C.3       1 <0>        -0.1670
      4 C4         -1.4333   -0.5336    0.0129 C.3       1 <0>        -0.1476
      5 C5          0.7182   -0.4975   -1.2568 C.3       1 <0>        -0.0018
      6 N1          2.0964    0.0110   -1.2672 N.4       1 <0>        -0.5063
      7 C6          2.7840   -0.4628   -2.4758 C.3       1 <0>        -0.0324
      8 C7          4.2193    0.0668   -2.4867 C.3       1 <0>         0.0892
      9 N2          4.9051   -0.4056   -3.6920 N.pl3     1 <0>        -0.4593
     10 C8          5.6191   -1.5745   -3.8173 C.ar      1 <0>         0.3220
     11 C9          6.0904   -1.6047   -5.1403 C.ar      1 <0>        -0.1084
     12 C10         6.8620   -2.7064   -5.5444 C.ar      1 <0>         0.5228
     13 N3          7.1094   -3.6660   -4.6585 N.ar      1 <0>        -0.5845
     14 C11         6.6445   -3.5937   -3.4249 C.ar      1 <0>         0.3859
     15 N4          5.9175   -2.5801   -3.0023 N.ar      1 <0>        -0.5708
     16 N5          7.3537   -2.7913   -6.8369 N.pl3     1 <0>        -0.8054
     17 N6          5.6517   -0.4759   -5.7505 N.2       1 <0>        -0.3786
     18 C12         4.9480    0.2319   -4.9021 C.2       1 <0>         0.1965
     19 S1          4.1770    1.7745   -5.2632 S.3       1 <0>         0.2565
     20 C13         4.5824    2.0686   -6.9525 C.2       1 <0>         0.0687
     21 N7          5.2874    1.3226   -7.7728 N.2       1 <0>        -0.4334
     22 C14         5.5202    1.6757   -9.0555 C.ar      1 <0>         0.0832
     23 C15         6.2569    0.9697  -10.0352 C.ar      1 <0>        -0.0433
     24 C16         6.3995    1.4727  -11.3019 C.ar      1 <0>        -0.0989
     25 C17         5.8311    2.6837  -11.6695 C.ar      1 <0>        -0.0685
     26 C18         5.1031    3.4013  -10.7365 C.ar      1 <0>         0.0086
     27 C19         4.9556    2.9047   -9.4646 C.ar      1 <0>        -0.1404
     28 S2          4.1328    3.4537   -7.9887 S.3       1 <0>         0.1022
     29 Cl1         4.3821    4.9196  -11.1708 Cl        1 <0>        -0.0423
     30 H1          1.0039    1.9031    0.0027 H         1 <0>         0.0516
     31 H2         -0.5459    1.8868   -0.8726 H         1 <0>         0.0753
     32 H3         -0.5289    1.8773    0.9072 H         1 <0>         0.0865
     33 H4          0.2319   -0.1594    2.1383 H         1 <0>         0.0864
     34 H5          0.7568   -1.6008    1.2356 H         1 <0>         0.0749
     35 H6          1.7647   -0.1336    1.2338 H         1 <0>         0.0516
     36 H7         -1.9605   -0.1726   -0.8702 H         1 <0>         0.0694
     37 H8         -1.4185   -1.6235    0.0069 H         1 <0>         0.0691
     38 H9         -1.9435   -0.1821    0.9097 H         1 <0>         0.0794
     39 H10         0.7330   -1.5874   -1.2628 H         1 <0>         0.1362
     40 H11         0.1910   -0.1364   -2.1398 H         1 <0>         0.1368
     41 H12         2.0827    1.0199   -1.2617 H         1 <0>         0.4282
     42 H13         2.7987   -1.5526   -2.4818 H         1 <0>         0.1448
     43 H14         2.2568   -0.1017   -3.3589 H         1 <0>         0.1418
     44 H15         4.2046    1.1567   -2.4807 H         1 <0>         0.1172
     45 H16         4.7465   -0.2943   -1.6036 H         1 <0>         0.1277
     46 H17         6.8690   -4.3953   -2.7367 H         1 <0>         0.2127
     47 H18         7.1662   -2.0848   -7.4745 H         1 <0>         0.4227
     48 H19         7.8855   -3.5573   -7.1042 H         1 <0>         0.4168
     49 H20         6.7123    0.0238   -9.7819 H         1 <0>         0.1419
     50 H21         6.9677    0.9137  -12.0306 H         1 <0>         0.1510
     51 H22         5.9558    3.0626  -12.6732 H         1 <0>         0.1558
     52 H23         2.5844   -0.3233   -0.4498 H         1 <0>         0.4302
@<TRIPOS>BOND
     1    1    2 1
     2    1   30 1
     3    1   31 1
     4    1   32 1
     5    2    3 1
     6    2    4 1
     7    2    5 1
     8    3   33 1
     9    3   34 1
    10    3   35 1
    11    4   36 1
    12    4   37 1
    13    4   38 1
    14    5    6 1
    15    5   39 1
    16    5   40 1
    17    6    7 1
    18    6   41 1
    19    6   52 1
    20    7    8 1
    21    7   42 1
    22    7   43 1
    23    8    9 1
    24    8   44 1
    25    8   45 1
    26    9   18 1
    27    9   10 1
    28   10   15 ar
    29   10   11 ar
    30   11   12 ar
    31   11   17 1
    32   12   13 ar
    33   12   16 1
    34   13   14 ar
    35   14   15 ar
    36   14   46 1
    37   16   47 1
    38   16   48 1
    39   17   18 2
    40   18   19 1
    41   19   20 1
    42   20   28 1
    43   20   21 2
    44   21   22 1
    45   22   27 ar
    46   22   23 ar
    47   23   24 ar
    48   23   49 1
    49   24   25 ar
    50   24   50 1
    51   25   26 ar
    52   25   51 1
    53   26   27 ar
    54   26   29 1
    55   27   28 1
@<TRIPOS>MOLECULE
CHEMBL365617
   45    47     0     0     0
SMALL
USER_CHARGES

@<TRIPOS>ATOM
      1 C1         -0.6190    1.4858    0.4022 C.3       1 <0>        -0.1677
      2 C2         -0.4654   -0.0334    0.3057 C.3       1 <0>         0.1149
      3 N1          0.3644   -0.5117    1.4143 N.am      1 <0>        -0.7283
      4 C3          0.6366   -1.8263    1.5340 C.2       1 <0>         0.5809
      5 O1          0.1931   -2.6158    0.7212 O.2       1 <0>        -0.4960
      6 C4          1.4680   -2.3056    2.6448 C.2       1 <0>         0.0369
      7 C5          1.8358   -3.6238    2.8930 C.2       1 <0>        -0.0911
      8 C6          2.6336   -3.6231    4.0601 C.2       1 <0>         0.1207
      9 N2          2.7408   -2.3842    4.4892 N.2       1 <0>        -0.2205
     10 N3          2.0322   -1.5388    3.6279 N.pl3     1 <0>        -0.4551
     11 H1          1.9529   -0.5759    3.7141 H         1 <0>         0.4440
     12 C7          3.2451   -4.8161    4.6932 C.ar      1 <0>        -0.0405
     13 C8          3.9371   -5.7427    3.9153 C.ar      1 <0>        -0.0476
     14 C9          4.5052   -6.8521    4.5071 C.ar      1 <0>        -0.0721
     15 C10         4.3893   -7.0485    5.8781 C.ar      1 <0>         0.1470
     16 C11         3.7024   -6.1309    6.6583 C.ar      1 <0>        -0.1629
     17 C12         3.1342   -5.0119    6.0733 C.ar      1 <0>         0.1587
     18 O2          2.4660   -4.1089    6.8377 O.3       1 <0>        -0.4803
     19 O3          4.9505   -8.1433    6.4556 O.3       1 <0>        -0.4836
     20 Cl1         5.3663   -8.0057    3.5368 Cl        1 <0>        -0.0463
     21 C13         1.4612   -4.8070    2.0858 C.ar      1 <0>        -0.0527
     22 C14         0.6045   -5.7724    2.6159 C.ar      1 <0>        -0.0572
     23 C15         0.2579   -6.8728    1.8614 C.ar      1 <0>        -0.1507
     24 C16         0.7607   -7.0215    0.5755 C.ar      1 <0>         0.1350
     25 C17         1.6140   -6.0629    0.0449 C.ar      1 <0>        -0.2051
     26 C18         1.9596   -4.9565    0.7911 C.ar      1 <0>        -0.0404
     27 O4          0.4174   -8.1075   -0.1650 O.3       1 <0>        -0.3171
     28 C19         0.9705   -8.1976   -1.4796 C.3       1 <0>         0.0267
     29 H2          0.3637    1.9544    0.3490 H         1 <0>         0.0630
     30 H3         -1.2363    1.8417   -0.4226 H         1 <0>         0.0790
     31 H4         -1.0937    1.7436    1.3489 H         1 <0>         0.0631
     32 H5         -1.4481   -0.5020    0.3589 H         1 <0>         0.0734
     33 H6          0.0093   -0.2913   -0.6410 H         1 <0>         0.0732
     34 H7          0.7178    0.1177    2.0622 H         1 <0>         0.3959
     35 H8          4.0282   -5.5925    2.8496 H         1 <0>         0.1454
     36 H9          3.6140   -6.2869    7.7233 H         1 <0>         0.1501
     37 H10         1.5225   -4.2975    6.9348 H         1 <0>         0.3944
     38 H11         5.8616   -8.0089    6.7506 H         1 <0>         0.3983
     39 H12         0.2136   -5.6578    3.6161 H         1 <0>         0.1242
     40 H13        -0.4052   -7.6205    2.2710 H         1 <0>         0.1312
     41 H14         2.0037   -6.1821   -0.9553 H         1 <0>         0.1281
     42 H15         2.6191   -4.2088    0.3759 H         1 <0>         0.1192
     43 H16         0.6580   -7.3330   -2.0653 H         1 <0>         0.0560
     44 H17         2.0584   -8.2189   -1.4153 H         1 <0>         0.0560
     45 H18         0.6170   -9.1095   -1.9608 H         1 <0>         0.1001
@<TRIPOS>BOND
     1    1    2 1
     2    1   29 1
     3    1   30 1
     4    1   31 1
     5    2    3 1
     6    2   32 1
     7    2   33 1
     8    3    4 am
     9    3   34 1
    10    4    5 2
    11    4    6 1
    12    6   10 1
    13    6    7 2
    14    7    8 1
    15    7   21 1
    16    8    9 2
    17    8   12 1
    18    9   10 1
    19   10   11 1
    20   12   17 ar
    21   12   13 ar
    22   13   14 ar
    23   13   35 1
    24   14   15 ar
    25   14   20 1
    26   15   16 ar
    27   15   19 1
    28   16   17 ar
    29   16   36 1
    30   17   18 1
    31   18   37 1
    32   19   38 1
    33   21   26 ar
    34   21   22 ar
    35   22   23 ar
    36   22   39 1
    37   23   24 ar
    38   23   40 1
    39   24   25 ar
    40   24   27 1
    41   25   26 ar
    42   25   41 1
    43   26   42 1
    44   27   28 1
    45   28   43 1
    46   28   44 1
    47   28   45 1
@<TRIPOS>MOLECULE
CHEMBL365617__1
   45    47     0     0     0
SMALL
USER_CHARGES

@<TRIPOS>ATOM
      1 C1         -0.0187    1.5258    0.0104 C.3       1 <0>        -0.1662
      2 C2          0.0021   -0.0041    0.0020 C.3       1 <0>         0.1146
      3 N1          0.6878   -0.4765   -1.2033 N.am      1 <0>        -0.7208
      4 C3          0.8268   -1.7986   -1.4250 C.2       1 <0>         0.5996
      5 O1          0.3832   -2.5993   -0.6247 O.2       1 <0>        -0.5147
      6 C4          1.5175   -2.2745   -2.6391 C.2       1 <0>        -0.0028
      7 C5          1.7342   -3.6305   -3.0093 C.2       1 <0>        -0.0589
      8 C6          2.4181   -3.5670   -4.2180 C.2       1 <0>         0.0579
      9 N2          2.5734   -2.2429   -4.5044 N.pl3     1 <0>        -0.3675
     10 N3          2.0429   -1.5226   -3.5841 N.2       1 <0>        -0.2479
     11 H1          3.0183   -1.8950   -5.2929 H         1 <0>         0.4493
     12 C7          2.8850   -4.7080   -5.0306 C.ar      1 <0>        -0.0568
     13 C8          4.2521   -4.9231   -5.2162 C.ar      1 <0>        -0.0605
     14 C9          4.6843   -5.9901   -5.9755 C.ar      1 <0>        -0.0744
     15 C10         3.7623   -6.8531   -6.5573 C.ar      1 <0>         0.1514
     16 C11         2.4026   -6.6463   -6.3783 C.ar      1 <0>        -0.1612
     17 C12         1.9582   -5.5818   -5.6134 C.ar      1 <0>         0.1689
     18 O2          0.6267   -5.3821   -5.4325 O.3       1 <0>        -0.4776
     19 O3          4.1950   -7.9025   -7.3042 O.3       1 <0>        -0.4840
     20 Cl1         6.3842   -6.2562   -6.2060 Cl        1 <0>        -0.0447
     21 C13         1.3218   -4.8449   -2.2688 C.ar      1 <0>        -0.0401
     22 C14         2.2865   -5.7018   -1.7385 C.ar      1 <0>        -0.0629
     23 C15         1.8988   -6.8314   -1.0492 C.ar      1 <0>        -0.1550
     24 C16         0.5502   -7.1163   -0.8825 C.ar      1 <0>         0.1314
     25 C17        -0.4126   -6.2658   -1.4089 C.ar      1 <0>        -0.2067
     26 C18        -0.0323   -5.1316   -2.0948 C.ar      1 <0>        -0.0231
     27 O4          0.1718   -8.2307   -0.2030 O.3       1 <0>        -0.3191
     28 C19        -1.2317   -8.4633   -0.0686 C.3       1 <0>         0.0272
     29 H2          1.0039    1.9031    0.0027 H         1 <0>         0.0625
     30 H3         -0.5459    1.8868   -0.8726 H         1 <0>         0.0623
     31 H4         -0.5289    1.8773    0.9072 H         1 <0>         0.0759
     32 H5          0.5293   -0.3651    0.8851 H         1 <0>         0.0700
     33 H6         -1.0205   -0.3814    0.0098 H         1 <0>         0.0698
     34 H7          1.0417    0.1622   -1.8418 H         1 <0>         0.4060
     35 H8          4.9705   -4.2542   -4.7658 H         1 <0>         0.1447
     36 H9          1.6902   -7.3189   -6.8328 H         1 <0>         0.1512
     37 H10         0.2189   -4.8180   -6.1038 H         1 <0>         0.3950
     38 H11         4.3386   -8.7134   -6.7973 H         1 <0>         0.4008
     39 H12         3.3357   -5.4810   -1.8681 H         1 <0>         0.1224
     40 H13         2.6451   -7.4955   -0.6387 H         1 <0>         0.1291
     41 H14        -1.4607   -6.4906   -1.2773 H         1 <0>         0.1265
     42 H15        -0.7819   -4.4681   -2.5001 H         1 <0>         0.1182
     43 H16        -1.6808   -8.5566   -1.0574 H         1 <0>         0.0550
     44 H17        -1.3955   -9.3830    0.4930 H         1 <0>         0.0992
     45 H18        -1.6895   -7.6278    0.4609 H         1 <0>         0.0561
@<TRIPOS>BOND
     1    1    2 1
     2    1   29 1
     3    1   30 1
     4    1   31 1
     5    2    3 1
     6    2   32 1
     7    2   33 1
     8    3    4 am
     9    3   34 1
    10    4    5 2
    11    4    6 1
    12    6   10 2
    13    6    7 1
    14    7   21 1
    15    7    8 2
    16    8   12 1
    17    8    9 1
    18    9   10 1
    19    9   11 1
    20   12   17 ar
    21   12   13 ar
    22   13   14 ar
    23   13   35 1
    24   14   15 ar
    25   14   20 1
    26   15   16 ar
    27   15   19 1
    28   16   17 ar
    29   16   36 1
    30   17   18 1
    31   18   37 1
    32   19   38 1
    33   21   26 ar
    34   21   22 ar
    35   22   23 ar
    36   22   39 1
    37   23   24 ar
    38   23   40 1
    39   24   25 ar
    40   24   27 1
    41   25   26 ar
    42   25   41 1
    43   26   42 1
    44   27   28 1
    45   28   43 1
    46   28   44 1
    47   28   45 1
@<TRIPOS>MOLECULE
CHEMBL112953
   51    53     0     0     0
SMALL
USER_CHARGES

@<TRIPOS>ATOM
      1 C1         -0.3231    0.4898   -0.0659 C.3       1 <0>         0.0197
      2 O1         -0.1350   -0.9095   -0.2868 O.3       1 <0>        -0.2968
      3 C2          0.5865   -1.2703   -1.3819 C.ar      1 <0>         0.1314
      4 C3          1.1066   -0.2972   -2.2218 C.ar      1 <0>        -0.1870
      5 C4          1.8400   -0.6624   -3.3351 C.ar      1 <0>        -0.0360
      6 C5          2.0581   -1.9992   -3.6159 C.ar      1 <0>        -0.0663
      7 C6          1.5406   -2.9784   -2.7806 C.ar      1 <0>         0.1268
      8 C7          0.8080   -2.6143   -1.6571 C.ar      1 <0>         0.0611
      9 O2          0.3037   -3.5717   -0.8318 O.3       1 <0>        -0.3160
     10 C8         -1.0047   -4.0624   -1.1307 C.3       1 <0>         0.0370
     11 O3          1.7549   -4.2928   -3.0573 O.3       1 <0>        -0.3188
     12 C9          2.9244   -4.8918   -2.4955 C.3       1 <0>         0.0383
     13 Cl1         2.9800   -2.4520   -5.0155 Cl        1 <0>        -0.0241
     14 C10         2.4030    0.3984   -4.2454 C.3       1 <0>         0.0003
     15 C11         3.8724    0.5755   -3.9619 C.2       1 <0>         0.2771
     16 N1          4.8230   -0.1600   -4.4603 N.2       1 <0>        -0.4273
     17 C12         6.0199    0.2750   -3.9968 C.ar      1 <0>        -0.1138
     18 C13         7.3552   -0.1211   -4.1857 C.ar      1 <0>         0.5428
     19 N2          8.3114    0.5515   -3.5543 N.ar      1 <0>        -0.6069
     20 C14         8.0227    1.5723   -2.7638 C.ar      1 <0>         0.5667
     21 N3          6.7852    1.9781   -2.5577 N.ar      1 <0>        -0.5743
     22 C15         5.7641    1.3644   -3.1481 C.ar      1 <0>         0.3322
     23 N4          4.4028    1.5340   -3.1497 N.pl3     1 <0>        -0.4588
     24 C16         3.6555    2.5552   -2.4115 C.3       1 <0>         0.1066
     25 C17         3.4038    2.0697   -0.9825 C.3       1 <0>        -0.1382
     26 C18         2.6234    3.1362   -0.2115 C.3       1 <0>        -0.0067
     27 C19         2.3813    2.6691    1.1632 C.1       1 <0>        -0.1985
     28 C20         2.1882    2.2966    2.2597 C.1       1 <0>        -0.1905
     29 F1          9.0325    2.2222   -2.1449 F         1 <0>        -0.0713
     30 N5          7.6669   -1.1877   -5.0103 N.pl3     1 <0>        -0.8064
     31 H1          0.6470    0.9729    0.0504 H         1 <0>         0.0601
     32 H2         -0.8460    0.9250   -0.9175 H         1 <0>         0.0591
     33 H3         -0.9139    0.6387    0.8380 H         1 <0>         0.1056
     34 H4          0.9381    0.7475   -2.0060 H         1 <0>         0.1449
     35 H5         -1.2853   -4.8188   -0.3977 H         1 <0>         0.0966
     36 H6         -1.7184   -3.2393   -1.0949 H         1 <0>         0.0475
     37 H7         -1.0084   -4.5034   -2.1275 H         1 <0>         0.0513
     38 H8          3.8098   -4.3683   -2.8562 H         1 <0>         0.0495
     39 H9          2.8804   -4.8248   -1.4084 H         1 <0>         0.0529
     40 H10         2.9750   -5.9391   -2.7932 H         1 <0>         0.1005
     41 H11         2.2672    0.0957   -5.2837 H         1 <0>         0.1241
     42 H12         1.8831    1.3404   -4.0707 H         1 <0>         0.1036
     43 H13         4.2326    3.4795   -2.3848 H         1 <0>         0.1046
     44 H14         2.7017    2.7366   -2.9069 H         1 <0>         0.1019
     45 H15         2.8267    1.1454   -1.0092 H         1 <0>         0.0759
     46 H16         4.3577    1.8883   -0.4871 H         1 <0>         0.0805
     47 H17         3.2006    4.0605   -0.1849 H         1 <0>         0.0944
     48 H18         1.6696    3.3176   -0.7069 H         1 <0>         0.0891
     49 H19         2.0155    1.9634    3.2403 H         1 <0>         0.2177
     50 H20         6.9601   -1.6714   -5.4657 H         1 <0>         0.4238
     51 H21         8.5921   -1.4518   -5.1328 H         1 <0>         0.4142
@<TRIPOS>BOND
     1    1    2 1
     2    1   31 1
     3    1   32 1
     4    1   33 1
     5    2    3 1
     6    3    8 ar
     7    3    4 ar
     8    4    5 ar
     9    4   34 1
    10    5    6 ar
    11    5   14 1
    12    6    7 ar
    13    6   13 1
    14    7    8 ar
    15    7   11 1
    16    8    9 1
    17    9   10 1
    18   10   35 1
    19   10   36 1
    20   10   37 1
    21   11   12 1
    22   12   38 1
    23   12   39 1
    24   12   40 1
    25   14   15 1
    26   14   41 1
    27   14   42 1
    28   15   23 1
    29   15   16 2
    30   16   17 1
    31   17   22 ar
    32   17   18 ar
    33   18   19 ar
    34   18   30 1
    35   19   20 ar
    36   20   21 ar
    37   20   29 1
    38   21   22 ar
    39   22   23 1
    40   23   24 1
    41   24   25 1
    42   24   43 1
    43   24   44 1
    44   25   26 1
    45   25   45 1
    46   25   46 1
    47   26   27 1
    48   26   47 1
    49   26   48 1
    50   27   28 3
    51   28   49 1
    52   30   50 1
    53   30   51 1
@<TRIPOS>MOLECULE
CHEMBL191635
   41    43     0     0     0
SMALL
USER_CHARGES

@<TRIPOS>ATOM
      1 C1         -2.8595    1.8413   -1.1328 C.3       1 <0>         0.0234
      2 O1         -2.9640    0.4520   -1.4507 O.3       1 <0>        -0.3096
      3 C2         -2.6790   -0.4312   -0.4578 C.ar      1 <0>         0.1388
      4 C3         -2.3119    0.0311    0.7985 C.ar      1 <0>        -0.1701
      5 C4         -2.0221   -0.8653    1.8095 C.ar      1 <0>        -0.0537
      6 C5         -2.0964   -2.2248    1.5734 C.ar      1 <0>        -0.0812
      7 C6         -2.4635   -2.6934    0.3173 C.ar      1 <0>        -0.0727
      8 C7         -2.7603   -1.7935   -0.6977 C.ar      1 <0>        -0.0818
      9 S1         -2.5584   -4.4268    0.0153 S.3       1 <0>         0.1192
     10 C8         -0.8758   -4.9240   -0.1465 C.2       1 <0>         0.2375
     11 N1          0.1540   -4.1137   -0.1407 N.2       1 <0>        -0.4446
     12 C9          1.2943   -4.8334   -0.2864 C.ar      1 <0>        -0.0979
     13 C10         2.6602   -4.5121   -0.3500 C.ar      1 <0>         0.5097
     14 N2          3.5369   -5.4992   -0.5032 N.ar      1 <0>        -0.5911
     15 C11         3.1421   -6.7560   -0.5944 C.ar      1 <0>         0.3646
     16 N3          1.8732   -7.1033   -0.5403 N.ar      1 <0>        -0.5564
     17 C12         0.9254   -6.1846   -0.3883 C.ar      1 <0>         0.3140
     18 N4         -0.4466   -6.2156   -0.2914 N.pl3     1 <0>        -0.4473
     19 C13        -1.2927   -7.4106   -0.3385 C.3       1 <0>         0.1082
     20 C14        -1.6869   -7.6995   -1.7883 C.3       1 <0>        -0.1318
     21 C15        -2.5706   -8.9476   -1.8375 C.3       1 <0>        -0.0059
     22 C16        -2.9499   -9.2255   -3.2323 C.1       1 <0>        -0.1929
     23 C17        -3.2525   -9.4472   -4.3448 C.1       1 <0>        -0.1990
     24 N5          3.0839   -3.1963   -0.2557 N.pl3     1 <0>        -0.8180
     25 I1         -1.6549   -3.5800    3.1088 I         1 <0>        -0.0160
     26 H1         -3.1131    2.4350   -2.0110 H         1 <0>         0.1061
     27 H2         -3.5466    2.0811   -0.3214 H         1 <0>         0.0599
     28 H3         -1.8390    2.0675   -0.8236 H         1 <0>         0.0594
     29 H4         -2.2522    1.0931    0.9860 H         1 <0>         0.1428
     30 H5         -1.7367   -0.5027    2.7860 H         1 <0>         0.1396
     31 H6         -3.0502   -2.1547   -1.6734 H         1 <0>         0.1496
     32 H7          3.8876   -7.5276   -0.7183 H         1 <0>         0.2054
     33 H8         -0.7430   -8.2610    0.0650 H         1 <0>         0.1066
     34 H9         -2.1909   -7.2435    0.2559 H         1 <0>         0.1007
     35 H10        -2.2366   -6.8491   -2.1917 H         1 <0>         0.0769
     36 H11        -0.7887   -7.8667   -2.3827 H         1 <0>         0.0777
     37 H12        -2.0210   -9.7980   -1.4340 H         1 <0>         0.0922
     38 H13        -3.4688   -8.7804   -1.2431 H         1 <0>         0.0921
     39 H14        -3.5230   -9.6455   -5.3398 H         1 <0>         0.2177
     40 H15         2.4344   -2.4845   -0.1444 H         1 <0>         0.4173
     41 H16         4.0300   -2.9869   -0.3010 H         1 <0>         0.4105
@<TRIPOS>BOND
     1    1    2 1
     2    1   26 1
     3    1   27 1
     4    1   28 1
     5    2    3 1
     6    3    8 ar
     7    3    4 ar
     8    4    5 ar
     9    4   29 1
    10    5    6 ar
    11    5   30 1
    12    6    7 ar
    13    6   25 1
    14    7    8 ar
    15    7    9 1
    16    8   31 1
    17    9   10 1
    18   10   18 1
    19   10   11 2
    20   11   12 1
    21   12   17 ar
    22   12   13 ar
    23   13   14 ar
    24   13   24 1
    25   14   15 ar
    26   15   16 ar
    27   15   32 1
    28   16   17 ar
    29   17   18 1
    30   18   19 1
    31   19   20 1
    32   19   33 1
    33   19   34 1
    34   20   21 1
    35   20   35 1
    36   20   36 1
    37   21   22 1
    38   21   37 1
    39   21   38 1
    40   22   23 3
    41   23   39 1
    42   24   40 1
    43   24   41 1
@<TRIPOS>MOLECULE
CHEMBL365159
   40    43     0     0     0
SMALL
USER_CHARGES

@<TRIPOS>ATOM
      1 C1         -0.1969   -1.2023   -0.3053 C.1       1 <0>        -0.1986
      2 C2         -0.1407   -0.0338   -0.2068 C.1       1 <0>        -0.1933
      3 C3         -0.0703    1.4313   -0.0834 C.3       1 <0>        -0.0059
      4 C4          1.3934    1.8758   -0.1128 C.3       1 <0>        -0.1319
      5 C5          1.4666    3.3987    0.0155 C.3       1 <0>         0.1079
      6 N1          2.8681    3.8243   -0.0127 N.pl3     1 <0>        -0.4485
      7 C6          3.7001    3.9602    1.0746 C.ar      1 <0>         0.3144
      8 C7          4.9389    4.3868    0.5682 C.ar      1 <0>        -0.0992
      9 C8          5.9866    4.6066    1.4771 C.ar      1 <0>         0.5094
     10 N2          5.7575    4.4011    2.7702 N.ar      1 <0>        -0.5906
     11 C9          4.5752    3.9997    3.1994 C.ar      1 <0>         0.3652
     12 N3          3.5644    3.7819    2.3838 N.ar      1 <0>        -0.5566
     13 N4          7.2309    5.0275    1.0359 N.pl3     1 <0>        -0.8181
     14 N5          4.8105    4.4902   -0.7781 N.2       1 <0>        -0.4465
     15 C10         3.5926    4.1543   -1.1262 C.2       1 <0>         0.2337
     16 S1          2.9790    4.1343   -2.7778 S.3       1 <0>         0.1374
     17 C11         4.3059    4.7907   -3.7334 C.ar      1 <0>        -0.1117
     18 C12         5.0983    3.9429   -4.4963 C.ar      1 <0>        -0.0299
     19 C13         6.1408    4.4592   -5.2469 C.ar      1 <0>         0.0393
     20 C14         6.3932    5.8293   -5.2355 C.ar      1 <0>         0.0787
     21 C15         5.6009    6.6723   -4.4735 C.ar      1 <0>        -0.0850
     22 C16         4.5563    6.1572   -3.7284 C.ar      1 <0>        -0.0213
     23 Br1         3.4720    7.3126   -2.6963 Br        1 <0>        -0.0044
     24 O1          7.4620    6.0824   -6.0478 O.3       1 <0>        -0.2986
     25 C17         8.1136    4.8118   -6.2325 C.3       1 <0>         0.2115
     26 O2          7.0508    3.8548   -6.0658 O.3       1 <0>        -0.2995
     27 H1         -0.2471   -2.2474   -0.3933 H         1 <0>         0.2176
     28 H2         -0.6067    1.8920   -0.9129 H         1 <0>         0.0924
     29 H3         -0.5245    1.7388    0.8585 H         1 <0>         0.0922
     30 H4          1.9298    1.4151    0.7167 H         1 <0>         0.0777
     31 H5          1.8476    1.5683   -1.0547 H         1 <0>         0.0772
     32 H6          0.9302    3.8594   -0.8141 H         1 <0>         0.1013
     33 H7          1.0124    3.7062    0.9574 H         1 <0>         0.1067
     34 H8          4.4317    3.8447    4.2585 H         1 <0>         0.2058
     35 H9          7.3861    5.1737    0.0896 H         1 <0>         0.4173
     36 H10         7.9468    5.1759    1.6734 H         1 <0>         0.4108
     37 H11         4.9016    2.8809   -4.5037 H         1 <0>         0.1563
     38 H12         5.7967    7.7344   -4.4649 H         1 <0>         0.1539
     39 H13         8.5387    4.7414   -7.2337 H         1 <0>         0.1403
     40 H14         8.8847    4.6633   -5.4766 H         1 <0>         0.0925
@<TRIPOS>BOND
     1    1    2 3
     2    1   27 1
     3    2    3 1
     4    3    4 1
     5    3   28 1
     6    3   29 1
     7    4    5 1
     8    4   30 1
     9    4   31 1
    10    5    6 1
    11    5   32 1
    12    5   33 1
    13    6   15 1
    14    6    7 1
    15    7   12 ar
    16    7    8 ar
    17    8    9 ar
    18    8   14 1
    19    9   10 ar
    20    9   13 1
    21   10   11 ar
    22   11   12 ar
    23   11   34 1
    24   13   35 1
    25   13   36 1
    26   14   15 2
    27   15   16 1
    28   16   17 1
    29   17   22 ar
    30   17   18 ar
    31   18   19 ar
    32   18   37 1
    33   19   26 1
    34   19   20 ar
    35   20   21 ar
    36   20   24 1
    37   21   22 ar
    38   21   38 1
    39   22   23 1
    40   24   25 1
    41   25   26 1
    42   25   39 1
    43   25   40 1
@<TRIPOS>MOLECULE
CHEMBL364968
   38    40     0     0     0
SMALL
USER_CHARGES

@<TRIPOS>ATOM
      1 C1         -0.0184    1.5028    0.0103 C.3       1 <0>        -0.0765
      2 C2          0.0021   -0.0041    0.0020 C.2       1 <0>         0.0913
      3 C3          0.0079   -0.8187   -1.1441 C.2       1 <0>        -0.1550
      4 C4          0.0278   -2.1384   -0.7122 C.2       1 <0>         0.1340
      5 N1          0.0336   -2.1113    0.6508 N.pl3     1 <0>        -0.4668
      6 H1          0.0473   -2.8848    1.2359 H         1 <0>         0.4409
      7 N2          0.0230   -0.7724    1.0584 N.2       1 <0>        -0.2811
      8 C5          0.0398   -3.3423   -1.5669 C.ar      1 <0>        -0.0700
      9 C6         -1.0454   -4.2207   -1.5552 C.ar      1 <0>        -0.0398
     10 C7         -1.0305   -5.3440   -2.3548 C.ar      1 <0>        -0.1319
     11 C8          0.0625   -5.6050   -3.1733 C.ar      1 <0>         0.1681
     12 C9          1.1449   -4.7380   -3.1908 C.ar      1 <0>        -0.1676
     13 C10         1.1377   -3.6043   -2.3968 C.ar      1 <0>         0.1789
     14 O1          2.1945   -2.7511   -2.4180 O.3       1 <0>        -0.4779
     15 O2          0.0705   -6.7138   -3.9586 O.3       1 <0>        -0.4831
     16 Br1        -2.5007   -6.5332   -2.3374 Br        1 <0>        -0.0245
     17 C11        -0.0052   -0.3548   -2.5523 C.ar      1 <0>        -0.0361
     18 C12        -1.1015   -0.6302   -3.3684 C.ar      1 <0>        -0.0675
     19 C13        -1.1105   -0.1973   -4.6780 C.ar      1 <0>        -0.1516
     20 C14        -0.0295    0.5116   -5.1837 C.ar      1 <0>         0.1264
     21 C15         1.0635    0.7875   -4.3738 C.ar      1 <0>        -0.2062
     22 C16         1.0762    0.3628   -3.0616 C.ar      1 <0>        -0.0513
     23 O3         -0.0412    0.9360   -6.4748 O.3       1 <0>        -0.3191
     24 C17         1.1037    1.6600   -6.9301 C.3       1 <0>         0.0272
     25 H2          1.0042    1.8801    0.0026 H         1 <0>         0.0791
     26 H3         -0.5455    1.8639   -0.8728 H         1 <0>         0.0800
     27 H4         -0.5286    1.8543    0.9071 H         1 <0>         0.0756
     28 H5         -1.8958   -4.0207   -0.9201 H         1 <0>         0.1437
     29 H6          1.9920   -4.9451   -3.8280 H         1 <0>         0.1504
     30 H7          2.8834   -2.9621   -1.7731 H         1 <0>         0.3960
     31 H8         -0.3061   -6.5754   -4.8385 H         1 <0>         0.4014
     32 H9         -1.9426   -1.1823   -2.9758 H         1 <0>         0.1232
     33 H10        -1.9595   -0.4103   -5.3107 H         1 <0>         0.1290
     34 H11         1.9030    1.3393   -4.7704 H         1 <0>         0.1273
     35 H12         1.9249    0.5820   -2.4306 H         1 <0>         0.1226
     36 H13         1.2281    2.5595   -6.3272 H         1 <0>         0.0559
     37 H14         1.9908    1.0337   -6.8357 H         1 <0>         0.0553
     38 H15         0.9654    1.9390   -7.9747 H         1 <0>         0.0997
@<TRIPOS>BOND
     1    1    2 1
     2    1   25 1
     3    1   26 1
     4    1   27 1
     5    2    7 2
     6    2    3 1
     7    3    4 2
     8    3   17 1
     9    4    5 1
    10    4    8 1
    11    5    6 1
    12    5    7 1
    13    8   13 ar
    14    8    9 ar
    15    9   10 ar
    16    9   28 1
    17   10   11 ar
    18   10   16 1
    19   11   12 ar
    20   11   15 1
    21   12   13 ar
    22   12   29 1
    23   13   14 1
    24   14   30 1
    25   15   31 1
    26   17   22 ar
    27   17   18 ar
    28   18   19 ar
    29   18   32 1
    30   19   20 ar
    31   19   33 1
    32   20   21 ar
    33   20   23 1
    34   21   22 ar
    35   21   34 1
    36   22   35 1
    37   23   24 1
    38   24   36 1
    39   24   37 1
    40   24   38 1
