@<TRIPOS>MOLECULE
ZINC03840952
   73    75     0     0     0
SMALL
USER_CHARGES
2-[(2-dimethylaminoacetyl)amino-hydroxy-dimethyl-BLAHyl]-N,N-diethyl-propanamide
@<TRIPOS>ATOM
      1 C1          4.8601   -3.1079   -4.5729 C.3       1 <0>        -0.1670
      2 C2          3.3827   -2.7274   -4.6880 C.3       1 <0>         0.1083
      3 N1          2.8826   -2.3085   -3.3763 N.am      1 <0>        -0.6115
      4 C3          2.3040   -3.2971   -2.4630 C.3       1 <0>         0.0886
      5 C4          0.8305   -3.5139   -2.8132 C.3       1 <0>        -0.1730
      6 C5          2.9550   -1.0135   -3.0097 C.2       1 <0>         0.5220
      7 O1          3.3607   -0.1828   -3.7947 O.2       1 <0>        -0.5325
      8 C6          2.5316   -0.5978   -1.6244 C.3       1 <0>        -0.1117
      9 H1          1.5182   -0.9505   -1.4331 H         1 <0>         0.0963
     10 C7          3.4862   -1.2065   -0.5953 C.3       1 <0>        -0.1595
     11 C8          2.5698    0.9278   -1.5158 C.3       1 <0>        -0.1005
     12 H2          3.5847    1.2785   -1.7035 H         1 <0>         0.0888
     13 C9          1.6258    1.5342   -2.5544 C.3       1 <0>        -0.1209
     14 C10         1.6336    3.0612   -2.4343 C.3       1 <0>        -0.1071
     15 C11         1.1957    3.4494   -1.0233 C.3       1 <0>        -0.0439
     16 C12         1.1155    4.9711   -0.8820 C.3       1 <0>        -0.0303
     17 C13         2.4973    5.5196   -0.7852 C.2       1 <0>        -0.1955
     18 C14         3.6479    4.8343   -0.5595 C.2       1 <0>         0.0874
     19 N2          4.7607    5.5638   -0.5163 N.2       1 <0>        -0.5149
     20 C15         4.7513    6.8699   -0.6831 C.2       1 <0>         0.2385
     21 S1          3.0610    7.1935   -0.9292 S.3       1 <0>         0.1684
     22 N3          5.8183    7.7607   -0.6670 N.am      1 <0>        -0.5844
     23 C16         5.6005    9.0766   -0.8604 C.2       1 <0>         0.5004
     24 O2          4.4736    9.4836   -1.0483 O.2       1 <0>        -0.4972
     25 C17         6.7573   10.0423   -0.8430 C.3       1 <0>        -0.0162
     26 C18         5.4140   11.8544    0.0370 C.3       1 <0>        -0.0545
     27 C19         7.3725   12.3387   -1.3017 C.3       1 <0>        -0.0422
     28 C20         3.6190    3.3238   -0.3741 C.3       1 <0>        -0.0125
     29 H3          3.9258    2.8380   -1.3004 H         1 <0>         0.1017
     30 C21         2.1972    2.8815   -0.0118 C.3       1 <0>        -0.0608
     31 H4          1.9365    3.2043    0.9961 H         1 <0>         0.0861
     32 C22         2.1396    1.3477   -0.1083 C.3       1 <0>         0.1124
     33 H5          2.8134    0.9072    0.6266 H         1 <0>         0.0636
     34 O3          0.8044    0.9018    0.1378 O.3       1 <0>        -0.5450
     35 C23         4.5782    2.9294    0.7507 C.3       1 <0>        -0.1416
     36 C24        -0.1893    2.8615   -0.7457 C.3       1 <0>        -0.1395
     37 H6          5.4309   -2.2472   -4.2245 H         1 <0>         0.0568
     38 H7          4.9699   -3.9280   -3.8633 H         1 <0>         0.0556
     39 H8          5.2322   -3.4197   -5.5489 H         1 <0>         0.0676
     40 H9          2.8119   -3.5882   -5.0365 H         1 <0>         0.0768
     41 H10         3.2729   -1.9073   -5.3976 H         1 <0>         0.0841
     42 H11         2.8428   -4.2397   -2.5592 H         1 <0>         0.0791
     43 H12         2.3845   -2.9356   -1.4379 H         1 <0>         0.0931
     44 H13         0.2917   -2.5713   -2.7171 H         1 <0>         0.0576
     45 H14         0.7501   -3.8754   -3.8384 H         1 <0>         0.0596
     46 H15         0.4000   -4.2495   -2.1337 H         1 <0>         0.0708
     47 H16         4.4492   -0.6984   -0.6478 H         1 <0>         0.0655
     48 H17         3.0670   -1.0879    0.4039 H         1 <0>         0.0707
     49 H18         3.6227   -2.2666   -0.8086 H         1 <0>         0.0722
     50 H19         1.9542    1.2477   -3.5535 H         1 <0>         0.0852
     51 H20         0.6150    1.1626   -2.3860 H         1 <0>         0.0689
     52 H21         2.6397    3.4369   -2.6204 H         1 <0>         0.0599
     53 H22         0.9441    3.4881   -3.1626 H         1 <0>         0.0646
     54 H23         0.6155    5.3929   -1.7539 H         1 <0>         0.0870
     55 H24         0.5578    5.2253    0.0194 H         1 <0>         0.0901
     56 H25         6.7196    7.4352   -0.5167 H         1 <0>         0.4320
     57 H26         7.2538    9.9971    0.1264 H         1 <0>         0.1694
     58 H27         7.4658    9.7747   -1.6268 H         1 <0>         0.1677
     59 H28         5.9930   11.8464    0.9605 H         1 <0>         0.1233
     60 H29         5.0600   12.8661   -0.1611 H         1 <0>         0.1285
     61 H30         4.5604   11.1840    0.1375 H         1 <0>         0.1346
     62 H31         7.9427   12.0205   -2.1744 H         1 <0>         0.1250
     63 H32         6.9770   13.3402   -1.4715 H         1 <0>         0.1305
     64 H33         8.0224   12.3483   -0.4267 H         1 <0>         0.1273
     65 H34         0.6932   -0.0571    0.0808 H         1 <0>         0.3664
     66 H35         4.5571    1.8478    0.8838 H         1 <0>         0.0618
     67 H36         5.5895    3.2441    0.4929 H         1 <0>         0.0653
     68 H37         4.2715    3.4155    1.6769 H         1 <0>         0.0545
     69 H38        -0.2319    1.8390   -1.1210 H         1 <0>         0.0934
     70 H39        -0.3759    2.8624    0.3282 H         1 <0>         0.0587
     71 H40        -0.9469    3.4642   -1.2466 H         1 <0>         0.0408
     72 N4          6.2449   11.4047   -1.0997 N.4       1 <0>        -0.3851
     73 H41         5.6681   11.3896   -1.9490 H         1 <0>         0.4404
@<TRIPOS>BOND
     1    1    2 1
     2    1   37 1
     3    1   38 1
     4    1   39 1
     5    2    3 1
     6    2   40 1
     7    2   41 1
     8    3    4 1
     9    3    6 am
    10    4    5 1
    11    4   42 1
    12    4   43 1
    13    5   44 1
    14    5   45 1
    15    5   46 1
    16    6    7 2
    17    6    8 1
    18    8    9 1
    19    8   10 1
    20    8   11 1
    21   10   47 1
    22   10   48 1
    23   10   49 1
    24   11   12 1
    25   11   32 1
    26   11   13 1
    27   13   14 1
    28   13   50 1
    29   13   51 1
    30   14   15 1
    31   14   52 1
    32   14   53 1
    33   15   30 1
    34   15   16 1
    35   15   36 1
    36   16   17 1
    37   16   54 1
    38   16   55 1
    39   17   21 1
    40   17   18 2
    41   18   19 1
    42   18   28 1
    43   19   20 2
    44   20   21 1
    45   20   22 1
    46   22   23 am
    47   22   56 1
    48   23   24 2
    49   23   25 1
    50   25   57 1
    51   25   58 1
    52   25   72 1
    53   26   59 1
    54   26   60 1
    55   26   61 1
    56   26   72 1
    57   27   62 1
    58   27   63 1
    59   27   64 1
    60   27   72 1
    61   28   29 1
    62   28   30 1
    63   28   35 1
    64   30   31 1
    65   30   32 1
    66   32   33 1
    67   32   34 1
    68   34   65 1
    69   35   66 1
    70   35   67 1
    71   35   68 1
    72   36   69 1
    73   36   70 1
    74   36   71 1
    75   72   73 1
@<TRIPOS>MOLECULE
ZINC12707283
   59    63     0     0     0
SMALL
USER_CHARGES
2-[(2S)-1-indan-2-yl-3-oxo-piperazin-2-yl]-N-[[5-methyl-2-(2-thienyl)oxazol-4-yl]methyl]acetamide
@<TRIPOS>ATOM
      1 C1          3.7138   -4.2758   -0.5306 C.3       1 <0>        -0.0784
      2 C2          3.9583   -2.9302    0.1022 C.2       1 <0>        -0.0017
      3 C3          3.1047   -2.2537    0.8908 C.2       1 <0>        -0.0469
      4 N1          3.6986   -1.1055    1.2518 N.2       1 <0>        -0.4552
      5 C4          4.8918   -1.0586    0.7007 C.2       1 <0>         0.2931
      6 O1          5.0728   -2.1800   -0.0203 O.3       1 <0>        -0.1826
      7 C5          5.8640    0.0344    0.8480 C.2       1 <0>        -0.1323
      8 C6          7.1314    0.1524    0.3082 C.2       1 <0>        -0.0975
      9 C7          7.8593    1.2852    0.5888 C.2       1 <0>        -0.1670
     10 C8          7.3200    2.2404    1.3905 C.2       1 <0>        -0.1550
     11 S1          5.7190    1.5522    1.7770 S.3       1 <0>         0.1512
     12 C9          1.7276   -2.7073    1.3017 C.3       1 <0>         0.2040
     13 N2          0.7609   -2.3325    0.2667 N.am      1 <0>        -0.6950
     14 C10        -0.5241   -2.7255    0.3708 C.2       1 <0>         0.5183
     15 O2         -0.9007   -3.3109    1.3639 O.2       1 <0>        -0.5554
     16 C11        -1.4930   -2.4375   -0.7470 C.3       1 <0>        -0.1777
     17 C12        -2.8381   -3.0984   -0.4390 C.3       1 <0>         0.0437
     18 H1         -3.5564   -2.8360   -1.2156 H         1 <0>         0.1760
     19 C13        -2.6643   -4.5905   -0.4039 C.2       1 <0>         0.5186
     20 O3         -1.9809   -5.1160   -1.2570 O.2       1 <0>        -0.4968
     21 N3         -3.2319   -5.3632    0.5281 N.am      1 <0>        -0.7107
     22 C14        -4.0427   -4.8269    1.6176 C.3       1 <0>         0.0848
     23 C15        -4.5010   -3.4069    1.2801 C.3       1 <0>        -0.0256
     24 C16        -3.6495   -1.1889    0.8093 C.3       1 <0>         0.0214
     25 C17        -2.3730   -0.3355    0.9659 C.3       1 <0>        -0.0999
     26 C18        -2.8085    0.8809    1.7604 C.ar      1 <0>        -0.1048
     27 C19        -2.1904    2.1087    1.9298 C.ar      1 <0>        -0.0933
     28 C20        -2.7828    3.0835    2.7083 C.ar      1 <0>        -0.1035
     29 C21        -3.9971    2.8341    3.3205 C.ar      1 <0>        -0.1036
     30 C22        -4.6152    1.6106    3.1523 C.ar      1 <0>        -0.0937
     31 C23        -4.0225    0.6316    2.3723 C.ar      1 <0>        -0.1053
     32 C24        -4.4868   -0.7694    2.0362 C.3       1 <0>        -0.0913
     33 H2          3.3381   -4.1377   -1.5445 H         1 <0>         0.0919
     34 H3          4.6474   -4.8374   -0.5624 H         1 <0>         0.0901
     35 H4          2.9789   -4.8257    0.0574 H         1 <0>         0.0953
     36 H5          7.5388   -0.6249   -0.3213 H         1 <0>         0.1433
     37 H6          8.8509    1.4119    0.1800 H         1 <0>         0.1471
     38 H7          7.7502    3.1775    1.7118 H         1 <0>         0.1979
     39 H8          1.4543   -2.2316    2.2436 H         1 <0>         0.0976
     40 H9          1.7241   -3.7901    1.4271 H         1 <0>         0.0987
     41 H10         1.0456   -1.8014   -0.4934 H         1 <0>         0.4143
     42 H11        -1.6304   -1.3602   -0.8403 H         1 <0>         0.1400
     43 H12        -1.0981   -2.8357   -1.6817 H         1 <0>         0.1565
     44 H13        -3.0994   -6.3228    0.4780 H         1 <0>         0.4258
     45 H14        -4.9154   -5.4629    1.7658 H         1 <0>         0.1278
     46 H15        -3.4514   -4.8081    2.5330 H         1 <0>         0.0999
     47 H16        -5.2291   -3.4406    0.4697 H         1 <0>         0.1414
     48 H17        -4.9544   -2.9504    2.1600 H         1 <0>         0.1550
     49 H18        -4.1689   -0.9427   -0.1168 H         1 <0>         0.1564
     50 H19        -1.6115   -0.8909    1.5134 H         1 <0>         0.0964
     51 H20        -1.9950   -0.0373   -0.0120 H         1 <0>         0.1062
     52 H21        -1.2419    2.3043    1.4518 H         1 <0>         0.1275
     53 H22        -2.2979    4.0396    2.8390 H         1 <0>         0.1346
     54 H23        -4.4616    3.5951    3.9299 H         1 <0>         0.1348
     55 H24        -5.5639    1.4167    3.6305 H         1 <0>         0.1290
     56 H25        -5.5479   -0.7666    1.7869 H         1 <0>         0.1102
     57 H26        -4.2957   -1.4420    2.8724 H         1 <0>         0.1003
     58 N4         -3.3133   -2.6288    0.8762 N.4       1 <0>        -0.3925
     59 H27        -2.5697   -2.7666    1.5706 H         1 <0>         0.4371
@<TRIPOS>BOND
     1    1    2 1
     2    1   33 1
     3    1   34 1
     4    1   35 1
     5    2    6 1
     6    2    3 2
     7    3    4 1
     8    3   12 1
     9    4    5 2
    10    5    6 1
    11    5    7 1
    12    7   11 1
    13    7    8 2
    14    8    9 1
    15    8   36 1
    16    9   10 2
    17    9   37 1
    18   10   11 1
    19   10   38 1
    20   12   13 1
    21   12   39 1
    22   12   40 1
    23   13   14 am
    24   13   41 1
    25   14   15 2
    26   14   16 1
    27   16   17 1
    28   16   42 1
    29   16   43 1
    30   17   18 1
    31   17   19 1
    32   17   58 1
    33   19   20 2
    34   19   21 am
    35   21   22 1
    36   21   44 1
    37   22   23 1
    38   22   45 1
    39   22   46 1
    40   23   47 1
    41   23   48 1
    42   23   58 1
    43   24   32 1
    44   24   25 1
    45   24   49 1
    46   24   58 1
    47   25   26 1
    48   25   50 1
    49   25   51 1
    50   26   31 ar
    51   26   27 ar
    52   27   28 ar
    53   27   52 1
    54   28   29 ar
    55   28   53 1
    56   29   30 ar
    57   29   54 1
    58   30   31 ar
    59   30   55 1
    60   31   32 1
    61   32   56 1
    62   32   57 1
    63   58   59 1
@<TRIPOS>MOLECULE
ZINC22635486
   68    71     0     0     0
SMALL
USER_CHARGES

@<TRIPOS>ATOM
      1 C1         -0.3792    1.5457   -0.3620 C.3       1 <0>        -0.1542
      2 C2         -0.4410    0.0193   -0.4476 C.3       1 <0>         0.0538
      3 O1          0.6995   -0.4644   -1.1597 O.3       1 <0>        -0.3147
      4 C3          0.7984   -1.8104   -1.3257 C.ar      1 <0>         0.1241
      5 C4         -0.1859   -2.6457   -0.8180 C.ar      1 <0>        -0.1898
      6 C5         -0.0861   -4.0127   -0.9862 C.ar      1 <0>        -0.0990
      7 C6          0.9998   -4.5511   -1.6638 C.ar      1 <0>         0.0969
      8 C7          1.9846   -3.7143   -2.1718 C.ar      1 <0>        -0.0804
      9 C8          1.8806   -2.3471   -2.0077 C.ar      1 <0>        -0.1348
     10 N1          1.1019   -5.9375   -1.8344 N.am      1 <0>        -0.6637
     11 C9          1.6355   -6.4398   -2.9655 C.2       1 <0>         0.5789
     12 O2          2.1052   -5.6905   -3.8019 O.2       1 <0>        -0.5083
     13 C10         1.6503   -7.8888   -3.1885 C.2       1 <0>        -0.2230
     14 C11         0.5502   -8.5614   -3.8654 C.2       1 <0>        -0.0569
     15 C12         0.7161   -9.8951   -3.9861 C.2       1 <0>        -0.2068
     16 S1          2.2851  -10.2251   -3.2340 S.3       1 <0>         0.2824
     17 C13         2.7131   -8.6702   -2.7691 C.2       1 <0>         0.0259
     18 N2          3.8650   -8.2627   -2.1135 N.am      1 <0>        -0.6165
     19 C14         4.8050   -9.1680   -1.7769 C.2       1 <0>         0.5093
     20 O3          4.6434  -10.3391   -2.0473 O.2       1 <0>        -0.4860
     21 C15         6.0569   -8.7250   -1.0644 C.3       1 <0>         0.0419
     22 N3          6.9148   -9.8904   -0.8115 N.3       1 <0>        -0.5228
     23 C16         6.2831  -10.8122    0.1431 C.3       1 <0>         0.0167
     24 C17         7.1792  -12.0379    0.3332 C.3       1 <0>         0.0006
     25 N4          8.4926  -11.6116    0.8339 N.4       1 <0>        -0.3895
     26 C18         9.1215  -10.7111   -0.1414 C.3       1 <0>        -0.0012
     27 C19         8.2415   -9.4743   -0.3354 C.3       1 <0>         0.0262
     28 C20         9.3465  -12.7902    1.0334 C.3       1 <0>        -0.0458
     29 C21        -0.2239  -10.8813   -4.6064 C.3       1 <0>        -0.0391
     30 C22        -0.6678  -10.3585   -5.9792 C.3       1 <0>        -0.1158
     31 C23        -1.9162   -9.5015   -5.7934 C.3       1 <0>        -0.1238
     32 C24        -1.8637   -8.7768   -4.4499 C.3       1 <0>        -0.1232
     33 C25        -0.6702   -7.8277   -4.4020 C.3       1 <0>        -0.0588
     34 H1          0.5292    1.8438    0.1614 H         1 <0>         0.0670
     35 H2         -0.3737    1.9660   -1.3677 H         1 <0>         0.0679
     36 H3         -1.2492    1.9147    0.1812 H         1 <0>         0.0807
     37 H4         -0.4466   -0.4010    0.5581 H         1 <0>         0.0624
     38 H5         -1.3495   -0.2788   -0.9710 H         1 <0>         0.0632
     39 H6         -1.0302   -2.2268   -0.2907 H         1 <0>         0.1336
     40 H7         -0.8523   -4.6629   -0.5905 H         1 <0>         0.1288
     41 H8          2.8295   -4.1324   -2.6989 H         1 <0>         0.1423
     42 H9          2.6443   -1.6959   -2.4066 H         1 <0>         0.1355
     43 H10         0.7885   -6.5362   -1.1385 H         1 <0>         0.4100
     44 H11         3.9943   -7.3260   -1.8972 H         1 <0>         0.4197
     45 H12         6.5932   -8.0068   -1.6847 H         1 <0>         0.1266
     46 H13         5.7895   -8.2581   -0.1164 H         1 <0>         0.0853
     47 H14         6.1481  -10.3084    1.1003 H         1 <0>         0.0593
     48 H15         5.3133  -11.1269   -0.2425 H         1 <0>         0.1390
     49 H16         6.7192  -12.7163    1.0518 H         1 <0>         0.1372
     50 H17         7.3028  -12.5492   -0.6215 H         1 <0>         0.1407
     51 H18        10.1015  -10.4058    0.2253 H         1 <0>         0.1387
     52 H19         9.2351  -11.2291   -1.0936 H         1 <0>         0.1397
     53 H20         8.7007   -8.8129   -1.0701 H         1 <0>         0.1270
     54 H21         8.1389   -8.9484    0.6138 H         1 <0>         0.0647
     55 H22         9.4712  -13.3131    0.0852 H         1 <0>         0.1238
     56 H23        10.3212  -12.4740    1.4049 H         1 <0>         0.1245
     57 H24         8.8806  -13.4579    1.7580 H         1 <0>         0.1247
     58 H25         0.2812  -11.8396   -4.7274 H         1 <0>         0.0760
     59 H26        -1.0961  -11.0065   -3.9648 H         1 <0>         0.0919
     60 H27         0.1282   -9.7555   -6.4160 H         1 <0>         0.0676
     61 H28        -0.8953  -11.1991   -6.6347 H         1 <0>         0.0734
     62 H29        -1.9735   -8.7678   -6.5975 H         1 <0>         0.0657
     63 H30        -2.7999  -10.1389   -5.8256 H         1 <0>         0.0670
     64 H31        -2.7827   -8.2073   -4.3115 H         1 <0>         0.0681
     65 H32        -1.7735   -9.5099   -3.6484 H         1 <0>         0.0731
     66 H33        -0.9027   -6.9859   -3.7498 H         1 <0>         0.0687
     67 H34        -0.4593   -7.4597   -5.4060 H         1 <0>         0.0818
     68 H35         8.3769  -11.1281    1.7119 H         1 <0>         0.4219
@<TRIPOS>BOND
     1    1    2 1
     2    1   34 1
     3    1   35 1
     4    1   36 1
     5    2    3 1
     6    2   37 1
     7    2   38 1
     8    3    4 1
     9    4    9 ar
    10    4    5 ar
    11    5    6 ar
    12    5   39 1
    13    6    7 ar
    14    6   40 1
    15    7    8 ar
    16    7   10 1
    17    8    9 ar
    18    8   41 1
    19    9   42 1
    20   10   11 am
    21   10   43 1
    22   11   12 2
    23   11   13 1
    24   13   17 2
    25   13   14 1
    26   14   33 1
    27   14   15 2
    28   15   16 1
    29   15   29 1
    30   16   17 1
    31   17   18 1
    32   18   19 am
    33   18   44 1
    34   19   20 2
    35   19   21 1
    36   21   22 1
    37   21   45 1
    38   21   46 1
    39   22   27 1
    40   22   23 1
    41   23   24 1
    42   23   47 1
    43   23   48 1
    44   24   25 1
    45   24   49 1
    46   24   50 1
    47   25   26 1
    48   25   28 1
    49   25   68 1
    50   26   27 1
    51   26   51 1
    52   26   52 1
    53   27   53 1
    54   27   54 1
    55   28   55 1
    56   28   56 1
    57   28   57 1
    58   29   30 1
    59   29   58 1
    60   29   59 1
    61   30   31 1
    62   30   60 1
    63   30   61 1
    64   31   32 1
    65   31   62 1
    66   31   63 1
    67   32   33 1
    68   32   64 1
    69   32   65 1
    70   33   66 1
    71   33   67 1
@<TRIPOS>MOLECULE
ZINC45513233
   63    67     0     0     0
SMALL
USER_CHARGES

@<TRIPOS>ATOM
      1 C1         -0.0167    1.3768    0.0096 C.ar      1 <0>        -0.0983
      2 C2          1.1692    2.0911    0.0021 C.ar      1 <0>        -0.1024
      3 C3          2.3811    1.4289   -0.0130 C.ar      1 <0>        -0.1042
      4 C4          2.4100    0.0426   -0.0206 C.ar      1 <0>         0.0785
      5 C5          1.2139   -0.6778   -0.0131 C.ar      1 <0>         0.0916
      6 C6          0.0021   -0.0041    0.0020 C.ar      1 <0>        -0.0997
      7 N1          1.5570   -2.0277   -0.0228 N.am      1 <0>        -0.6390
      8 H1          0.9345   -2.7717   -0.0209 H         1 <0>         0.4401
      9 C7          2.8999   -2.1240   -0.0357 C.2       1 <0>         0.6860
     10 O1          3.5277   -3.1663   -0.0469 O.2       1 <0>        -0.5592
     11 N2          3.4427   -0.8919   -0.0347 N.am      1 <0>        -0.5378
     12 C8          4.8754   -0.5862   -0.0465 C.3       1 <0>         0.1603
     13 C9          5.5170   -1.1875   -1.3002 C.3       1 <0>        -0.1672
     14 C10         7.0256   -0.9333   -1.2665 C.3       1 <0>         0.0028
     15 N3          7.6042   -1.5585   -0.0711 N.4       1 <0>        -0.3871
     16 C11         7.0460   -0.9368    1.1358 C.3       1 <0>        -0.0069
     17 C12         5.5383   -1.1912    1.1944 C.3       1 <0>        -0.1665
     18 C13         9.0621   -1.3787   -0.0833 C.3       1 <0>         0.0058
     19 C14         9.6791   -2.1354    1.0947 C.3       1 <0>        -0.1701
     20 C15        11.1747   -1.9510    1.0823 C.2       1 <0>         0.5171
     21 O2         11.6958   -1.2803    0.2164 O.2       1 <0>        -0.4911
     22 N4         11.9332   -2.5313    2.0333 N.am      1 <0>        -0.6115
     23 C16        13.3107   -2.3614    2.0218 C.2       1 <0>         0.0294
     24 C17        14.2394   -2.8812    2.9054 C.2       1 <0>        -0.1173
     25 C18        15.6394   -2.5536    2.6767 C.2       1 <0>        -0.0551
     26 C19        15.8469   -1.7594    1.6049 C.2       1 <0>        -0.2006
     27 S1         14.2336   -1.4841    0.9283 S.3       1 <0>         0.3089
     28 C20        17.1511   -1.2228    1.1030 C.3       1 <0>        -0.0420
     29 C21        18.1664   -2.3702    1.0146 C.3       1 <0>        -0.1157
     30 C22        18.8910   -2.4835    2.3523 C.3       1 <0>        -0.1246
     31 C23        17.9510   -2.1062    3.4954 C.3       1 <0>        -0.1251
     32 C24        16.7697   -3.0697    3.5550 C.3       1 <0>        -0.0612
     33 C25        13.8393   -3.7093    4.0031 C.1       1 <0>         0.2602
     34 N5         13.5218   -4.3661    4.8739 N.1       1 <0>        -0.4134
     35 H2         -0.9604    1.9017    0.0259 H         1 <0>         0.1405
     36 H3          1.1466    3.1709    0.0077 H         1 <0>         0.1391
     37 H4          3.3041    1.9895   -0.0191 H         1 <0>         0.1290
     38 H5         -0.9251   -0.5579    0.0079 H         1 <0>         0.1371
     39 H6          5.0176    0.4945   -0.0454 H         1 <0>         0.1160
     40 H7          5.3293   -2.2609   -1.3261 H         1 <0>         0.1084
     41 H8          5.0891   -0.7210   -2.1875 H         1 <0>         0.1199
     42 H9          7.4855   -1.3600   -2.1578 H         1 <0>         0.1410
     43 H10         7.2122    0.1403   -1.2409 H         1 <0>         0.1356
     44 H11         7.5211   -1.3661    2.0179 H         1 <0>         0.1368
     45 H12         7.2322    0.1368    1.1101 H         1 <0>         0.1367
     46 H13         5.1255   -0.7273    2.0903 H         1 <0>         0.1189
     47 H14         5.3510   -2.2647    1.2204 H         1 <0>         0.1082
     48 H15         9.4682   -1.7670   -1.0173 H         1 <0>         0.1463
     49 H16         9.2981   -0.3181    0.0025 H         1 <0>         0.1446
     50 H17         9.2729   -1.7472    2.0288 H         1 <0>         0.1255
     51 H18         9.4430   -3.1961    1.0089 H         1 <0>         0.1275
     52 H19        11.5164   -3.0676    2.7257 H         1 <0>         0.4235
     53 H20        17.0089   -0.7851    0.1149 H         1 <0>         0.0793
     54 H21        17.5205   -0.4616    1.7901 H         1 <0>         0.0956
     55 H22        17.6459   -3.3036    0.8001 H         1 <0>         0.0679
     56 H23        18.8875   -2.1605    0.2245 H         1 <0>         0.0750
     57 H24        19.2349   -3.5084    2.4910 H         1 <0>         0.0663
     58 H25        19.7504   -1.8131    2.3553 H         1 <0>         0.0683
     59 H26        18.4963   -2.1459    4.4384 H         1 <0>         0.0704
     60 H27        17.5817   -1.0926    3.3387 H         1 <0>         0.0747
     61 H28        16.4203   -3.1516    4.5843 H         1 <0>         0.0721
     62 H29        17.0844   -4.0514    3.2010 H         1 <0>         0.0839
     63 H30         7.3889   -2.5443   -0.0707 H         1 <0>         0.4272
@<TRIPOS>BOND
     1    1    6 ar
     2    1    2 ar
     3    1   35 1
     4    2    3 ar
     5    2   36 1
     6    3    4 ar
     7    3   37 1
     8    4   11 1
     9    4    5 ar
    10    5    6 ar
    11    5    7 1
    12    6   38 1
    13    7    8 1
    14    7    9 am
    15    9   10 2
    16    9   11 am
    17   11   12 1
    18   12   17 1
    19   12   13 1
    20   12   39 1
    21   13   14 1
    22   13   40 1
    23   13   41 1
    24   14   15 1
    25   14   42 1
    26   14   43 1
    27   15   16 1
    28   15   18 1
    29   15   63 1
    30   16   17 1
    31   16   44 1
    32   16   45 1
    33   17   46 1
    34   17   47 1
    35   18   19 1
    36   18   48 1
    37   18   49 1
    38   19   20 1
    39   19   50 1
    40   19   51 1
    41   20   21 2
    42   20   22 am
    43   22   23 1
    44   22   52 1
    45   23   27 1
    46   23   24 2
    47   24   25 1
    48   24   33 1
    49   25   32 1
    50   25   26 2
    51   26   27 1
    52   26   28 1
    53   28   29 1
    54   28   53 1
    55   28   54 1
    56   29   30 1
    57   29   55 1
    58   29   56 1
    59   30   31 1
    60   30   57 1
    61   30   58 1
    62   31   32 1
    63   31   59 1
    64   31   60 1
    65   32   61 1
    66   32   62 1
    67   33   34 3
@<TRIPOS>MOLECULE
ZINC63541315
   59    63     0     0     0
SMALL
USER_CHARGES

@<TRIPOS>ATOM
      1 C1         -1.2637    1.1837    0.1810 C.3       1 <0>        -0.1168
      2 C2         -0.5835   -0.1576    0.0842 C.ar      1 <0>        -0.1065
      3 C3         -0.5684   -0.8401   -1.1167 C.ar      1 <0>        -0.1028
      4 C4          0.0554   -2.0707   -1.2063 C.ar      1 <0>        -0.1223
      5 C5          0.6665   -2.6221   -0.0949 C.ar      1 <0>        -0.1067
      6 C6          0.6553   -1.9447    1.1084 C.ar      1 <0>        -0.1144
      7 C7          0.0336   -0.7061    1.2006 C.ar      1 <0>         0.1331
      8 N1          0.0251   -0.0147    2.4170 N.am      1 <0>        -0.6623
      9 C8         -0.0564   -0.6944    3.5780 C.2       1 <0>         0.5324
     10 O1         -0.0401   -1.9072    3.5730 O.2       1 <0>        -0.4917
     11 C9         -0.1678    0.0524    4.8822 C.3       1 <0>        -0.1289
     12 S1         -0.2589   -1.1333    6.2520 S.3       1 <0>        -0.1424
     13 C10        -0.3876   -0.0883    7.7291 C.3       1 <0>         0.3953
     14 H1         -0.4483   -0.7211    8.6145 H         1 <0>         0.1606
     15 N2          0.8007    0.7668    7.8240 N.pl3     1 <0>        -0.7095
     16 C11         0.8961    1.8736    6.9976 C.ar      1 <0>         0.3655
     17 C12        -0.2933    2.5036    6.5875 C.ar      1 <0>        -0.0332
     18 N3         -0.2383    3.5808    5.8171 N.ar      1 <0>        -0.3491
     19 C13         0.9340    4.0455    5.4287 C.ar      1 <0>         0.0086
     20 C14         2.1064    3.4157    5.8210 C.ar      1 <0>         0.1333
     21 N4          2.0653    2.3445    6.5958 N.ar      1 <0>        -0.4731
     22 C15        -1.5827    1.9285    7.0221 C.2       1 <0>         0.5808
     23 O2         -2.6207    2.5299    6.8249 O.2       1 <0>        -0.4827
     24 N5         -1.5949    0.7331    7.6374 N.am      1 <0>        -0.6162
     25 C16        -2.8446    0.2450    8.2258 C.3       1 <0>         0.1202
     26 C17        -2.9408    0.7127    9.6794 C.3       1 <0>        -0.1130
     27 C18        -4.2263    0.2105   10.2847 C.2       1 <0>         0.0726
     28 C19        -4.3950   -0.9127   11.0191 C.ar      1 <0>        -0.1689
     29 C20        -3.4681   -1.9633   11.4565 C.ar      1 <0>        -0.0141
     30 C21        -3.9425   -2.9889   12.1997 C.ar      1 <0>        -0.1487
     31 C22        -5.2940   -3.0735   12.5615 C.ar      1 <0>         0.0531
     32 C23        -6.2057   -2.1470   12.1975 C.ar      1 <0>        -0.2083
     33 C24        -5.8171   -1.0249   11.4148 C.ar      1 <0>         0.3274
     34 N6         -6.5009   -0.0107   10.9433 N.pl3     1 <0>        -0.5838
     35 C25        -5.5875    0.8640   10.1994 C.3       1 <0>         0.0595
     36 H2         -0.5481    1.9717   -0.0536 H         1 <0>         0.0735
     37 H3         -2.0921    1.2229   -0.5263 H         1 <0>         0.0749
     38 H4         -1.6428    1.3267    1.1929 H         1 <0>         0.0600
     39 H5         -1.0447   -0.4121   -1.9864 H         1 <0>         0.1290
     40 H6          0.0653   -2.6026   -2.1462 H         1 <0>         0.1271
     41 H7          1.1527   -3.5837   -0.1680 H         1 <0>         0.1282
     42 H8          1.1324   -2.3760    1.9760 H         1 <0>         0.1384
     43 H9          0.0778    0.9539    2.4248 H         1 <0>         0.4106
     44 H10         0.7065    0.6903    5.0114 H         1 <0>         0.1060
     45 H11        -1.0679    0.6670    4.8732 H         1 <0>         0.1107
     46 H12         1.5076    0.5605    8.4553 H         1 <0>         0.4301
     47 H13         0.9813    4.9230    4.8009 H         1 <0>         0.1870
     48 H14         3.0592    3.8024    5.4907 H         1 <0>         0.1885
     49 H15        -3.6900    0.6380    7.6610 H         1 <0>         0.1096
     50 H16        -2.8606   -0.8444    8.1928 H         1 <0>         0.1050
     51 H17        -2.0954    0.3196   10.2442 H         1 <0>         0.1120
     52 H18        -2.9248    1.8020    9.7124 H         1 <0>         0.1162
     53 H19        -2.4228   -1.9183   11.1885 H         1 <0>         0.1593
     54 H20        -3.2622   -3.7630   12.5226 H         1 <0>         0.1581
     55 H21        -5.6193   -3.9147   13.1556 H         1 <0>         0.1609
     56 H22        -7.2359   -2.2586   12.5020 H         1 <0>         0.1605
     57 H23        -5.5582    1.8540   10.6544 H         1 <0>         0.1753
     58 H24        -5.9047    0.9371    9.1592 H         1 <0>         0.1759
     59 H25        -7.4511    0.1387   11.0687 H         1 <0>         0.4562
@<TRIPOS>BOND
     1    1    2 1
     2    1   36 1
     3    1   37 1
     4    1   38 1
     5    2    7 ar
     6    2    3 ar
     7    3    4 ar
     8    3   39 1
     9    4    5 ar
    10    4   40 1
    11    5    6 ar
    12    5   41 1
    13    6    7 ar
    14    6   42 1
    15    7    8 1
    16    8    9 am
    17    8   43 1
    18    9   10 2
    19    9   11 1
    20   11   12 1
    21   11   44 1
    22   11   45 1
    23   12   13 1
    24   13   14 1
    25   13   24 1
    26   13   15 1
    27   15   16 1
    28   15   46 1
    29   16   21 ar
    30   16   17 ar
    31   17   18 ar
    32   17   22 1
    33   18   19 ar
    34   19   20 ar
    35   19   47 1
    36   20   21 ar
    37   20   48 1
    38   22   23 2
    39   22   24 am
    40   24   25 1
    41   25   26 1
    42   25   49 1
    43   25   50 1
    44   26   27 1
    45   26   51 1
    46   26   52 1
    47   27   35 1
    48   27   28 2
    49   28   33 ar
    50   28   29 ar
    51   29   30 ar
    52   29   53 1
    53   30   31 ar
    54   30   54 1
    55   31   32 ar
    56   31   55 1
    57   32   33 ar
    58   32   56 1
    59   33   34 2
    60   34   35 1
    61   34   59 1
    62   35   57 1
    63   35   58 1
@<TRIPOS>MOLECULE
ZINC20732840
   51    53     0     0     0
SMALL
USER_CHARGES

@<TRIPOS>ATOM
      1 C1         -2.2775   -4.2245    0.5371 C.3       1 <0>         0.0337
      2 O1         -1.8802   -3.0226   -0.1259 O.3       1 <0>        -0.3500
      3 C2         -1.3432   -3.1506   -1.3495 C.2       1 <0>         0.4472
      4 O2         -1.2147   -4.2468   -1.8412 O.2       1 <0>        -0.4907
      5 C3         -0.9005   -1.9271   -2.1098 C.3       1 <0>         0.1823
      6 H1         -0.1341   -1.4024   -1.5394 H         1 <0>         0.1360
      7 C4         -2.0985   -1.0005   -2.3270 C.3       1 <0>        -0.1061
      8 C5         -1.6269    0.2964   -2.9878 C.3       1 <0>        -0.0867
      9 S1         -3.0472    1.3950   -3.2453 S.3       1 <0>        -0.2581
     10 C6         -2.3282    2.8663   -4.0256 C.3       1 <0>        -0.1196
     11 N1         -0.3533   -2.3302   -3.4076 N.am      1 <0>        -0.7243
     12 C7          0.9384   -2.7015   -3.5083 C.2       1 <0>         0.7312
     13 O3          1.6727   -2.6157   -2.5431 O.2       1 <0>        -0.5687
     14 N2          1.4161   -3.1681   -4.6791 N.am      1 <0>        -0.6151
     15 C8          2.7886   -3.6861   -4.7809 C.3       1 <0>         0.1296
     16 C9          2.7393   -5.1801   -5.1242 C.3       1 <0>        -0.0560
     17 C10         1.7345   -5.3930   -6.2287 C.2       1 <0>         0.0452
     18 C11         0.7732   -4.5067   -6.5662 C.2       1 <0>        -0.0562
     19 N3          0.0669   -5.0495   -7.5941 N.pl3     1 <0>        -0.5588
     20 H2         -0.6894   -4.6484   -8.0501 H         1 <0>         0.4230
     21 C12         0.6203   -6.2556   -7.8597 C.2       1 <0>         0.2015
     22 N4          1.6175   -6.4511   -7.0372 N.2       1 <0>        -0.4818
     23 C13         0.5740   -3.1779   -5.8894 C.3       1 <0>         0.2747
     24 H3         -0.4734   -3.0559   -5.6137 H         1 <0>         0.1078
     25 C14         0.9948   -2.0666   -6.8162 C.ar      1 <0>        -0.1268
     26 C15         1.1817   -2.3228   -8.1618 C.ar      1 <0>        -0.0571
     27 C16         1.5676   -1.3053   -9.0138 C.ar      1 <0>        -0.1299
     28 C17         1.7677   -0.0270   -8.5210 C.ar      1 <0>         0.1081
     29 C18         1.5808    0.2319   -7.1725 C.ar      1 <0>         0.0361
     30 C19         1.1883   -0.7888   -6.3206 C.ar      1 <0>         0.1181
     31 F1          0.9997   -0.5377   -5.0066 F         1 <0>        -0.1078
     32 F2          1.7760    1.4785   -6.6897 F         1 <0>        -0.1122
     33 F3          2.1453    0.9672   -9.3542 F         1 <0>        -0.1137
     34 H4         -3.0306   -4.7375   -0.0610 H         1 <0>         0.0606
     35 H5         -1.4107   -4.8730    0.6641 H         1 <0>         0.0615
     36 H6         -2.6943   -3.9797    1.5141 H         1 <0>         0.1051
     37 H7         -2.8265   -1.4929   -2.9717 H         1 <0>         0.0855
     38 H8         -2.5598   -0.7719   -1.3663 H         1 <0>         0.1095
     39 H9         -0.8989    0.7888   -2.3431 H         1 <0>         0.0901
     40 H10        -1.1655    0.0677   -3.9485 H         1 <0>         0.0849
     41 H11        -1.5854    3.3047   -3.3591 H         1 <0>         0.0789
     42 H12        -1.8521    2.5837   -4.9645 H         1 <0>         0.0757
     43 H13        -3.1150    3.5946   -4.2220 H         1 <0>         0.1041
     44 H14        -0.9206   -2.3297   -4.1944 H         1 <0>         0.3984
     45 H15         3.3231   -3.1497   -5.5649 H         1 <0>         0.0739
     46 H16         3.3016   -3.5479   -3.8291 H         1 <0>         0.1100
     47 H17         3.7232   -5.5110   -5.4568 H         1 <0>         0.0967
     48 H18         2.4395   -5.7476   -4.2432 H         1 <0>         0.0864
     49 H19         0.2918   -6.9436   -8.6246 H         1 <0>         0.2156
     50 H20         1.0264   -3.3194   -8.5477 H         1 <0>         0.1494
     51 H21         1.7134   -1.5075  -10.0646 H         1 <0>         0.1590
@<TRIPOS>BOND
     1    1    2 1
     2    1   34 1
     3    1   35 1
     4    1   36 1
     5    2    3 1
     6    3    4 2
     7    3    5 1
     8    5    6 1
     9    5    7 1
    10    5   11 1
    11    7    8 1
    12    7   37 1
    13    7   38 1
    14    8    9 1
    15    8   39 1
    16    8   40 1
    17    9   10 1
    18   10   41 1
    19   10   42 1
    20   10   43 1
    21   11   12 am
    22   11   44 1
    23   12   13 2
    24   12   14 am
    25   14   23 1
    26   14   15 1
    27   15   16 1
    28   15   45 1
    29   15   46 1
    30   16   17 1
    31   16   47 1
    32   16   48 1
    33   17   22 1
    34   17   18 2
    35   18   19 1
    36   18   23 1
    37   19   20 1
    38   19   21 1
    39   21   22 2
    40   21   49 1
    41   23   24 1
    42   23   25 1
    43   25   30 ar
    44   25   26 ar
    45   26   27 ar
    46   26   50 1
    47   27   28 ar
    48   27   51 1
    49   28   29 ar
    50   28   33 1
    51   29   30 ar
    52   29   32 1
    53   30   31 1
@<TRIPOS>MOLECULE
ZINC15001298
   65    68     0     0     0
SMALL
USER_CHARGES
(3S)-1-[1-[3-[(2-methoxybenzoyl)amino]phenyl]-4-piperidyl]piperidine-3-carboxamide
@<TRIPOS>ATOM
      1 C1         -3.4196    4.8420    2.8237 C.3       1 <0>         0.0194
      2 O1         -2.5666    3.9362    2.1207 O.3       1 <0>        -0.2839
      3 C2         -1.6535    4.4792    1.2771 C.ar      1 <0>         0.1899
      4 C3         -1.5764    5.8559    1.1263 C.ar      1 <0>        -0.2191
      5 C4         -0.6464    6.4071    0.2677 C.ar      1 <0>        -0.0433
      6 C5          0.2156    5.5925   -0.4486 C.ar      1 <0>        -0.1641
      7 C6          0.1566    4.2232   -0.3071 C.ar      1 <0>        -0.0468
      8 C7         -0.7834    3.6517    0.5543 C.ar      1 <0>        -0.1837
      9 C8         -0.8555    2.1864    0.7067 C.2       1 <0>         0.5647
     10 O2         -1.6715    1.6930    1.4612 O.2       1 <0>        -0.4955
     11 N1         -0.0169    1.3943    0.0097 N.am      1 <0>        -0.6763
     12 C9         -0.1571    0.0041    0.0687 C.ar      1 <0>         0.1805
     13 C10         0.9644   -0.8123   -0.0146 C.ar      1 <0>        -0.1635
     14 C11         0.8274   -2.1854    0.0494 C.ar      1 <0>        -0.0699
     15 C12        -0.4254   -2.7522    0.1849 C.ar      1 <0>        -0.1858
     16 C13        -1.5514   -1.9418    0.2629 C.ar      1 <0>         0.1179
     17 C14        -1.4166   -0.5616    0.2047 C.ar      1 <0>        -0.1381
     18 N2         -2.8175   -2.5154    0.4003 N.pl3     1 <0>        -0.4860
     19 C15        -3.7175   -2.0665   -0.6697 C.3       1 <0>         0.0592
     20 C16        -5.1289   -2.5965   -0.4067 C.3       1 <0>        -0.1413
     21 C17        -5.0927   -4.1263   -0.3530 C.3       1 <0>         0.0289
     22 C18        -4.1117   -4.5678    0.7366 C.3       1 <0>        -0.1388
     23 C19        -2.7298   -3.9807    0.4405 C.3       1 <0>         0.0523
     24 C20        -6.4136   -6.0990    0.1206 C.3       1 <0>        -0.0108
     25 C21        -7.7905   -6.5806    0.5832 C.3       1 <0>        -0.1428
     26 C22        -8.8416   -6.1797   -0.4556 C.3       1 <0>        -0.1308
     27 C23        -8.8087   -4.6605   -0.6433 C.3       1 <0>        -0.1336
     28 H1         -9.0674   -4.1720    0.2962 H         1 <0>         0.1221
     29 C24        -7.4023   -4.2344   -1.0704 C.3       1 <0>         0.0114
     30 C25        -9.7996   -4.2625   -1.7068 C.2       1 <0>         0.5284
     31 O3         -9.4189   -3.6940   -2.7081 O.2       1 <0>        -0.5318
     32 N3        -11.1089   -4.5385   -1.5450 N.am      1 <0>        -0.8424
     33 H2         -2.8142    5.5091    3.4373 H         1 <0>         0.0595
     34 H3         -3.9949    5.4289    2.1078 H         1 <0>         0.0583
     35 H4         -4.1002    4.2787    3.4621 H         1 <0>         0.1042
     36 H5         -2.2446    6.4975    1.6815 H         1 <0>         0.1385
     37 H6         -0.5901    7.4796    0.1541 H         1 <0>         0.1347
     38 H7          0.9397    6.0331   -1.1179 H         1 <0>         0.1349
     39 H8          0.8334    3.5923   -0.8641 H         1 <0>         0.1321
     40 H9          0.6864    1.7883   -0.5297 H         1 <0>         0.4116
     41 H10         1.9446   -0.3726   -0.1253 H         1 <0>         0.1291
     42 H11         1.7011   -2.8174   -0.0111 H         1 <0>         0.1310
     43 H12        -0.5296   -3.8262    0.2297 H         1 <0>         0.1267
     44 H13        -2.2901    0.0705    0.2655 H         1 <0>         0.1394
     45 H14        -3.7374   -0.9770   -0.6942 H         1 <0>         0.1027
     46 H15        -3.3602   -2.4448   -1.6274 H         1 <0>         0.0564
     47 H16        -5.7933   -2.2761   -1.2092 H         1 <0>         0.0979
     48 H17        -5.4923   -2.2075    0.5445 H         1 <0>         0.0981
     49 H18        -4.7664   -4.5169   -1.3169 H         1 <0>         0.1389
     50 H19        -4.0494   -5.6560    0.7509 H         1 <0>         0.0974
     51 H20        -4.4591   -4.2099    1.7058 H         1 <0>         0.0979
     52 H21        -2.3771   -4.3500   -0.5225 H         1 <0>         0.0584
     53 H22        -2.0325   -4.2815    1.2224 H         1 <0>         0.1052
     54 H23        -6.1656   -6.5682   -0.8315 H         1 <0>         0.1319
     55 H24        -5.6649   -6.3703    0.8649 H         1 <0>         0.1347
     56 H25        -8.0332   -6.1224    1.5419 H         1 <0>         0.0917
     57 H26        -7.7801   -7.6653    0.6904 H         1 <0>         0.1185
     58 H27        -9.8298   -6.4827   -0.1096 H         1 <0>         0.0995
     59 H28        -8.6211   -6.6689   -1.4044 H         1 <0>         0.0899
     60 H29        -7.3717   -3.1516   -1.1910 H         1 <0>         0.1387
     61 H30        -7.1498   -4.7126   -2.0168 H         1 <0>         0.1394
     62 H31       -11.4134   -4.9932   -0.7442 H         1 <0>         0.4063
     63 H32       -11.7466   -4.2823   -2.2295 H         1 <0>         0.4151
     64 N4         -6.4416   -4.6274   -0.0175 N.4       1 <0>        -0.3901
     65 H33        -6.7381   -4.2148    0.8747 H         1 <0>         0.4252
@<TRIPOS>BOND
     1    1    2 1
     2    1   33 1
     3    1   34 1
     4    1   35 1
     5    2    3 1
     6    3    8 ar
     7    3    4 ar
     8    4    5 ar
     9    4   36 1
    10    5    6 ar
    11    5   37 1
    12    6    7 ar
    13    6   38 1
    14    7    8 ar
    15    7   39 1
    16    8    9 1
    17    9   10 2
    18    9   11 am
    19   11   12 1
    20   11   40 1
    21   12   17 ar
    22   12   13 ar
    23   13   14 ar
    24   13   41 1
    25   14   15 ar
    26   14   42 1
    27   15   16 ar
    28   15   43 1
    29   16   17 ar
    30   16   18 1
    31   17   44 1
    32   18   23 1
    33   18   19 1
    34   19   20 1
    35   19   45 1
    36   19   46 1
    37   20   21 1
    38   20   47 1
    39   20   48 1
    40   21   22 1
    41   21   49 1
    42   21   64 1
    43   22   23 1
    44   22   50 1
    45   22   51 1
    46   23   52 1
    47   23   53 1
    48   24   25 1
    49   24   54 1
    50   24   55 1
    51   24   64 1
    52   25   26 1
    53   25   56 1
    54   25   57 1
    55   26   27 1
    56   26   58 1
    57   26   59 1
    58   27   28 1
    59   27   29 1
    60   27   30 1
    61   29   60 1
    62   29   61 1
    63   29   64 1
    64   30   31 2
    65   30   32 am
    66   32   62 1
    67   32   63 1
    68   64   65 1
@<TRIPOS>MOLECULE
ZINC39356214
   48    51     0     0     0
SMALL
USER_CHARGES

@<TRIPOS>ATOM
      1 C1         -0.1094    1.1974   -0.6420 C.3       1 <0>        -0.1865
      2 C2         -0.0836   -0.3005   -0.3313 C.3       1 <0>        -0.0053
      3 N1          0.5925   -0.5224    0.9539 N.4       1 <0>        -0.4015
      4 C3          0.6218   -1.9721    1.2836 C.3       1 <0>         0.2040
      5 H1          0.7812   -2.5690    0.3856 H         1 <0>         0.1357
      6 N2          1.7871   -2.0785    2.2001 N.3       1 <0>        -0.4685
      7 N3          2.7722   -1.1428    1.6512 N.3       1 <0>        -0.4721
      8 C4          2.0221   -0.1465    0.8599 C.3       1 <0>         0.1430
      9 H2          2.3478   -0.1735   -0.1800 H         1 <0>         0.1709
     10 S1          2.2752    1.5125    1.5485 S.3       1 <0>         0.0206
     11 C5          1.7276    1.3609    3.2712 C.3       1 <0>        -0.0902
     12 C6          1.8872    2.6877    3.9677 C.2       1 <0>         0.3958
     13 N4          1.5329    2.7754    5.2763 N.am      1 <0>        -0.6482
     14 H3          1.1877    1.9930    5.7341 H         1 <0>         0.4195
     15 C7          1.6574    3.9443    5.9471 C.2       1 <0>         0.5536
     16 O1          1.3446    4.0368    7.1198 O.2       1 <0>        -0.4925
     17 C8          2.1860    5.0980    5.2041 C.ar      1 <0>        -0.1887
     18 C9          2.3527    6.3457    5.8015 C.ar      1 <0>        -0.0417
     19 C10         2.8518    7.3928    5.0582 C.ar      1 <0>        -0.1224
     20 C11         3.1885    7.2137    3.7228 C.ar      1 <0>        -0.0699
     21 C12         3.0309    5.9892    3.1138 C.ar      1 <0>        -0.1005
     22 C13         2.5273    4.9122    3.8462 C.ar      1 <0>         0.1413
     23 N5          2.3613    3.6871    3.2877 N.2       1 <0>        -0.4985
     24 C14        -0.6489   -2.3870    1.9793 C.ar      1 <0>        -0.1447
     25 C15        -1.5189   -3.2665    1.3623 C.ar      1 <0>        -0.0689
     26 C16        -2.6846   -3.6475    1.9999 C.ar      1 <0>        -0.1050
     27 C17        -2.9806   -3.1484    3.2558 C.ar      1 <0>        -0.0013
     28 C18        -2.1095   -2.2682    3.8728 C.ar      1 <0>        -0.1065
     29 C19        -0.9415   -1.8924    3.2366 C.ar      1 <0>        -0.0691
     30 Cl1        -4.4447   -3.6260    4.0570 Cl        1 <0>        -0.0334
     31 H4          0.9118    1.5744   -0.6988 H         1 <0>         0.0863
     32 H5         -0.6111    1.3621   -1.5956 H         1 <0>         0.1098
     33 H6         -0.6473    1.7229    0.1471 H         1 <0>         0.0856
     34 H7         -1.1048   -0.6774   -0.2744 H         1 <0>         0.1370
     35 H8          0.4543   -0.8260   -1.1203 H         1 <0>         0.1311
     36 H9          2.1510   -3.0194    2.2146 H         1 <0>         0.3884
     37 H10         3.4486   -1.6247    1.0782 H         1 <0>         0.3622
     38 H11         0.6796    1.0621    3.2943 H         1 <0>         0.1090
     39 H12         2.3311    0.6088    3.7794 H         1 <0>         0.1457
     40 H13         2.0922    6.4910    6.8395 H         1 <0>         0.1432
     41 H14         2.9820    8.3614    5.5179 H         1 <0>         0.1407
     42 H15         3.5784    8.0455    3.1549 H         1 <0>         0.1411
     43 H16         3.2962    5.8619    2.0746 H         1 <0>         0.1427
     44 H17        -1.2879   -3.6558    0.3817 H         1 <0>         0.1423
     45 H18        -3.3643   -4.3343    1.5176 H         1 <0>         0.1501
     46 H19        -2.3403   -1.8781    4.8531 H         1 <0>         0.1493
     47 H20        -0.2591   -1.2091    3.7202 H         1 <0>         0.1399
     48 H21         0.1372   -0.0003    1.6875 H         1 <0>         0.4264
@<TRIPOS>BOND
     1    1    2 1
     2    1   31 1
     3    1   32 1
     4    1   33 1
     5    2    3 1
     6    2   34 1
     7    2   35 1
     8    3    8 1
     9    3    4 1
    10    3   48 1
    11    4    5 1
    12    4    6 1
    13    4   24 1
    14    6    7 1
    15    6   36 1
    16    7    8 1
    17    7   37 1
    18    8    9 1
    19    8   10 1
    20   10   11 1
    21   11   12 1
    22   11   38 1
    23   11   39 1
    24   12   23 2
    25   12   13 1
    26   13   14 1
    27   13   15 am
    28   15   16 2
    29   15   17 1
    30   17   22 ar
    31   17   18 ar
    32   18   19 ar
    33   18   40 1
    34   19   20 ar
    35   19   41 1
    36   20   21 ar
    37   20   42 1
    38   21   22 ar
    39   21   43 1
    40   22   23 1
    41   24   29 ar
    42   24   25 ar
    43   25   26 ar
    44   25   44 1
    45   26   27 ar
    46   26   45 1
    47   27   28 ar
    48   27   30 1
    49   28   29 ar
    50   28   46 1
    51   29   47 1
@<TRIPOS>MOLECULE
ZINC39684215
   70    74     0     0     0
SMALL
USER_CHARGES

@<TRIPOS>ATOM
      1 C1          1.6503    0.1257   -5.3571 C.3       1 <0>        -0.1169
      2 C2          0.3918    0.1174   -6.1861 C.ar      1 <0>        -0.0878
      3 C3          0.1528   -0.9128   -7.0693 C.ar      1 <0>        -0.1029
      4 C4         -1.0021   -0.9319   -7.8389 C.ar      1 <0>        -0.1366
      5 C5         -1.9233    0.0720   -7.7332 C.ar      1 <0>        -0.0836
      6 C6         -1.7016    1.1253   -6.8444 C.ar      1 <0>        -0.0959
      7 C7         -2.4533    2.3304   -6.4858 C.2       1 <0>        -0.1855
      8 C8         -1.7341    2.9796   -5.5567 C.2       1 <0>         0.0702
      9 N1         -0.5832    2.2889   -5.2908 N.pl3     1 <0>        -0.5903
     10 C9         -0.5349    1.1466   -6.0582 C.ar      1 <0>         0.0970
     11 C10        -3.7818    2.7601   -7.0527 C.3       1 <0>        -0.0473
     12 C11        -4.9112    2.0724   -6.2830 C.3       1 <0>         0.1204
     13 N2         -6.2027    2.4901   -6.8342 N.am      1 <0>        -0.7288
     14 C12        -7.3468    2.0081   -6.3096 C.2       1 <0>         0.5183
     15 O1         -7.3072    1.2286   -5.3813 O.2       1 <0>        -0.5194
     16 C13        -8.6754    2.4378   -6.8766 C.3       1 <0>        -0.1133
     17 H1         -8.6056    3.4473   -7.2818 H         1 <0>         0.1108
     18 C14        -9.7716    2.3689   -5.7899 C.3       1 <0>         0.1132
     19 N3        -10.9791    1.8940   -6.5058 N.am      1 <0>        -0.6243
     20 C15       -10.4689    0.8735   -7.4525 C.3       1 <0>         0.1034
     21 C16        -9.1362    1.4544   -7.9655 C.3       1 <0>        -0.0718
     22 C17        -8.1085    0.3405   -8.1408 C.3       1 <0>        -0.1479
     23 C18        -8.5601   -0.5917   -9.2685 C.3       1 <0>        -0.0076
     24 N4         -8.6985    0.1741  -10.5132 N.4       1 <0>        -0.5049
     25 C19        -9.7546    1.1828  -10.3655 C.3       1 <0>        -0.0108
     26 C20        -9.3535    2.1901   -9.2842 C.3       1 <0>        -0.1356
     27 C21       -12.2533    2.2988   -6.3352 C.2       1 <0>         0.5392
     28 O2        -12.5040    3.2067   -5.5712 O.2       1 <0>        -0.5147
     29 C22       -13.3665    1.6232   -7.0939 C.3       1 <0>        -0.0965
     30 H2        -13.0094    1.3243   -8.0794 H         1 <0>         0.0865
     31 C23       -14.5481    2.5896   -7.2448 C.3       1 <0>        -0.1047
     32 C24       -15.5857    1.9452   -8.1666 C.3       1 <0>        -0.0932
     33 C25       -15.8742    0.5421   -7.7191 C.2       1 <0>        -0.1498
     34 C26       -15.1142   -0.1347   -6.9192 C.2       1 <0>        -0.1604
     35 C27       -13.8399    0.3895   -6.3223 C.3       1 <0>        -0.0779
     36 H3          1.4707   -0.3989   -4.4187 H         1 <0>         0.0720
     37 H4          2.4497   -0.3731   -5.9050 H         1 <0>         0.0738
     38 H5          1.9407    1.1553   -5.1479 H         1 <0>         0.0586
     39 H6          0.8714   -1.7134   -7.1640 H         1 <0>         0.1270
     40 H7         -1.1739   -1.7464   -8.5269 H         1 <0>         0.1219
     41 H8         -2.8195    0.0507   -8.3355 H         1 <0>         0.1139
     42 H9         -2.0212    3.9095   -5.0885 H         1 <0>         0.1709
     43 H10         0.0959    2.5616   -4.6542 H         1 <0>         0.4189
     44 H11        -3.8842    3.8412   -6.9592 H         1 <0>         0.0768
     45 H12        -3.8357    2.4796   -8.1046 H         1 <0>         0.0731
     46 H13        -4.8088    0.9912   -6.3765 H         1 <0>         0.0725
     47 H14        -4.8573    2.3528   -5.2311 H         1 <0>         0.0729
     48 H15        -6.2344    3.1135   -7.5766 H         1 <0>         0.3995
     49 H16        -9.4896    1.6617   -5.0099 H         1 <0>         0.0979
     50 H17        -9.9466    3.3567   -5.3634 H         1 <0>         0.0955
     51 H18       -10.2996   -0.0722   -6.9376 H         1 <0>         0.0874
     52 H19       -11.1669    0.7382   -8.2787 H         1 <0>         0.0851
     53 H20        -7.1409    0.7745   -8.3929 H         1 <0>         0.0983
     54 H21        -8.0234   -0.2253   -7.2131 H         1 <0>         0.1265
     55 H22        -7.8193   -1.3792   -9.4072 H         1 <0>         0.1398
     56 H23        -9.5198   -1.0381   -9.0082 H         1 <0>         0.1330
     57 H24        -7.8245    0.6324  -10.7235 H         1 <0>         0.4286
     58 H25        -9.8945    1.7034  -11.3128 H         1 <0>         0.1402
     59 H26       -10.6859    0.6942  -10.0790 H         1 <0>         0.1318
     60 H27       -10.1462    2.9284   -9.1626 H         1 <0>         0.1184
     61 H28        -8.4310    2.6910   -9.5778 H         1 <0>         0.0979
     62 H29       -14.9933    2.7793   -6.2681 H         1 <0>         0.0800
     63 H30       -14.2018    3.5264   -7.6812 H         1 <0>         0.0713
     64 H31       -16.5055    2.5294   -8.1395 H         1 <0>         0.0818
     65 H32       -15.2013    1.9272   -9.1864 H         1 <0>         0.0735
     66 H33       -16.7720    0.0678   -8.0869 H         1 <0>         0.1087
     67 H34       -15.4132   -1.1416   -6.6677 H         1 <0>         0.1103
     68 H35       -13.0712   -0.3820   -6.3677 H         1 <0>         0.0739
     69 H36       -14.0163    0.6601   -5.2812 H         1 <0>         0.0833
     70 H37        -8.9367   -0.4525  -11.2673 H         1 <0>         0.4342
@<TRIPOS>BOND
     1    1   36 1
     2    1   37 1
     3    1   38 1
     4    1    2 1
     5    2   10 ar
     6    2    3 ar
     7    3   39 1
     8    3    4 ar
     9    4   40 1
    10    4    5 ar
    11    5   41 1
    12    5    6 ar
    13    6   10 ar
    14    6    7 1
    15    7   11 1
    16    7    8 2
    17    8    9 1
    18    8   42 1
    19    9   43 1
    20    9   10 1
    21   11   12 1
    22   11   44 1
    23   11   45 1
    24   12   13 1
    25   12   46 1
    26   12   47 1
    27   13   14 am
    28   13   48 1
    29   14   15 2
    30   14   16 1
    31   16   17 1
    32   16   21 1
    33   16   18 1
    34   18   19 1
    35   18   49 1
    36   18   50 1
    37   19   20 1
    38   19   27 am
    39   20   21 1
    40   20   51 1
    41   20   52 1
    42   21   26 1
    43   21   22 1
    44   22   23 1
    45   22   53 1
    46   22   54 1
    47   23   24 1
    48   23   55 1
    49   23   56 1
    50   24   25 1
    51   24   57 1
    52   24   70 1
    53   25   26 1
    54   25   58 1
    55   25   59 1
    56   26   60 1
    57   26   61 1
    58   27   28 2
    59   27   29 1
    60   29   30 1
    61   29   35 1
    62   29   31 1
    63   31   32 1
    64   31   62 1
    65   31   63 1
    66   32   33 1
    67   32   64 1
    68   32   65 1
    69   33   34 2
    70   33   66 1
    71   34   35 1
    72   34   67 1
    73   35   68 1
    74   35   69 1
@<TRIPOS>MOLECULE
ZINC59935271
   57    60     0     0     0
SMALL
USER_CHARGES

@<TRIPOS>ATOM
      1 C1          4.3422    2.0012   -0.2687 C.2       1 <0>        -0.1853
      2 C2          5.7048    1.7509   -0.5277 C.2       1 <0>        -0.1853
      3 C3          5.8726    0.4132   -0.5547 C.2       1 <0>        -0.0176
      4 N1          4.6616   -0.1735   -0.3215 N.pl3     1 <0>        -0.4015
      5 C4          3.7273    0.8072   -0.1470 C.2       1 <0>        -0.0174
      6 C5          4.4179   -1.5532   -0.2703 C.ar      1 <0>         0.1533
      7 C6          5.4596   -2.4510   -0.4602 C.ar      1 <0>        -0.1396
      8 C7          5.2166   -3.8097   -0.4087 C.ar      1 <0>        -0.0719
      9 C8          3.9372   -4.2759   -0.1683 C.ar      1 <0>        -0.0950
     10 C9          2.8975   -3.3841    0.0208 C.ar      1 <0>        -0.0721
     11 C10         3.1355   -2.0243   -0.0239 C.ar      1 <0>        -0.1394
     12 C11         3.6753   -5.7589   -0.1127 C.3       1 <0>        -0.0958
     13 C12         3.8482   -6.2469    1.3026 C.2       1 <0>         0.5161
     14 O1          4.1539   -5.4671    2.1798 O.2       1 <0>        -0.4995
     15 N2          3.6631   -7.5498    1.5936 N.am      1 <0>        -0.6812
     16 C13         3.9175   -8.0210    2.8863 C.ar      1 <0>         0.1589
     17 C14         3.6440   -7.2180    3.9861 C.ar      1 <0>        -0.0898
     18 C15         3.8964   -7.6859    5.2606 C.ar      1 <0>        -0.0928
     19 C16         4.4213   -8.9524    5.4425 C.ar      1 <0>        -0.1099
     20 C17         4.6950   -9.7541    4.3498 C.ar      1 <0>        -0.1406
     21 C18         4.4387   -9.2944    3.0726 C.ar      1 <0>        -0.1229
     22 C19         5.2674  -11.1333    4.5526 C.3       1 <0>         0.0485
     23 N3          4.1722  -12.1039    4.6809 N.4       1 <0>        -0.3794
     24 C20         3.4098  -11.8333    5.9183 C.3       1 <0>        -0.0083
     25 C21         3.0040  -13.2317    6.4468 C.3       1 <0>        -0.1431
     26 C22         4.2596  -14.0743    6.0999 C.3       1 <0>        -0.1318
     27 C23         4.7252  -13.4685    4.7591 C.3       1 <0>        -0.0049
     28 H1          5.8141  -13.4297    4.7280 H         1 <0>         0.1684
     29 C24         4.2059  -14.2986    3.6136 C.2       1 <0>         0.5161
     30 O2          3.4470  -13.8083    2.8046 O.2       1 <0>        -0.5260
     31 N4          4.5847  -15.5860    3.4883 N.am      1 <0>        -0.8232
     32 H2          3.8766    2.9716   -0.1795 H         1 <0>         0.1436
     33 H3          6.4737    2.4944   -0.6775 H         1 <0>         0.1435
     34 H4          6.8038   -0.1048   -0.7307 H         1 <0>         0.1651
     35 H5          2.6775    0.6532    0.0542 H         1 <0>         0.1654
     36 H6          6.4590   -2.0874   -0.6483 H         1 <0>         0.1326
     37 H7          6.0265   -4.5086   -0.5567 H         1 <0>         0.1290
     38 H8          1.8991   -3.7512    0.2077 H         1 <0>         0.1299
     39 H9          2.3239   -1.3282    0.1287 H         1 <0>         0.1329
     40 H10         2.6570   -5.9608   -0.4448 H         1 <0>         0.1119
     41 H11         4.3793   -6.2769   -0.7641 H         1 <0>         0.1114
     42 H12         3.3534   -8.1608    0.9069 H         1 <0>         0.4161
     43 H13         3.2348   -6.2286    3.8447 H         1 <0>         0.1500
     44 H14         3.6839   -7.0620    6.1162 H         1 <0>         0.1400
     45 H15         4.6180   -9.3160    6.4403 H         1 <0>         0.1319
     46 H16         4.6479   -9.9230    2.2197 H         1 <0>         0.1342
     47 H17         5.8892  -11.3980    3.6975 H         1 <0>         0.1344
     48 H18         5.8721  -11.1460    5.4594 H         1 <0>         0.1401
     49 H19         4.0379  -11.3200    6.6464 H         1 <0>         0.1365
     50 H20         2.5231  -11.2398    5.6955 H         1 <0>         0.1377
     51 H21         2.8347  -13.2082    7.5233 H         1 <0>         0.1249
     52 H22         2.1249  -13.6071    5.9230 H         1 <0>         0.0998
     53 H23         5.0274  -13.9544    6.8643 H         1 <0>         0.1169
     54 H24         3.9969  -15.1250    5.9775 H         1 <0>         0.1151
     55 H25         5.1916  -15.9782    4.1354 H         1 <0>         0.4141
     56 H26         4.2504  -16.1203    2.7510 H         1 <0>         0.4248
     57 H27         3.5583  -12.0316    3.8834 H         1 <0>         0.4313
@<TRIPOS>BOND
     1    1    5 2
     2    1    2 1
     3    1   32 1
     4    2    3 2
     5    2   33 1
     6    3    4 1
     7    3   34 1
     8    4    5 1
     9    4    6 1
    10    5   35 1
    11    6   11 ar
    12    6    7 ar
    13    7    8 ar
    14    7   36 1
    15    8    9 ar
    16    8   37 1
    17    9   10 ar
    18    9   12 1
    19   10   11 ar
    20   10   38 1
    21   11   39 1
    22   12   13 1
    23   12   40 1
    24   12   41 1
    25   13   14 2
    26   13   15 am
    27   15   16 1
    28   15   42 1
    29   16   21 ar
    30   16   17 ar
    31   17   18 ar
    32   17   43 1
    33   18   19 ar
    34   18   44 1
    35   19   20 ar
    36   19   45 1
    37   20   21 ar
    38   20   22 1
    39   21   46 1
    40   22   23 1
    41   22   47 1
    42   22   48 1
    43   23   27 1
    44   23   24 1
    45   23   57 1
    46   24   25 1
    47   24   49 1
    48   24   50 1
    49   25   26 1
    50   25   51 1
    51   25   52 1
    52   26   27 1
    53   26   53 1
    54   26   54 1
    55   27   28 1
    56   27   29 1
    57   29   30 2
    58   29   31 am
    59   31   55 1
    60   31   56 1
@<TRIPOS>MOLECULE
ZINC65265714
   59    63     0     0     0
SMALL
USER_CHARGES

@<TRIPOS>ATOM
      1 C1         -0.0152    1.3861    0.0116 C.ar      1 <0>        -0.0852
      2 C2          1.1716    2.0950    0.0079 C.ar      1 <0>        -0.1159
      3 C3          2.3788    1.4217   -0.0085 C.ar      1 <0>        -0.0913
      4 C4          2.3993    0.0396   -0.0207 C.ar      1 <0>        -0.1500
      5 C5          1.2125   -0.6693   -0.0161 C.ar      1 <0>        -0.0899
      6 C6          0.0053    0.0040   -0.0011 C.ar      1 <0>        -0.1160
      7 C7          3.7153   -0.6944   -0.0395 C.3       1 <0>         0.1055
      8 N1          4.1548   -0.9443    1.3354 N.pl3     1 <0>        -0.5607
      9 C8          5.2675   -1.5656    1.5558 C.cat     1 <0>         0.5199
     10 N2          6.0731   -2.0047    0.5201 N.pl3     1 <0>        -0.6088
     11 C9          6.7174   -3.2383    0.6732 C.ar      1 <0>         0.2694
     12 C10         6.7461   -3.8600    1.9230 C.ar      1 <0>         0.1435
     13 C11         7.3988   -5.0765    2.0607 C.ar      1 <0>        -0.0965
     14 C12         7.9967   -5.6342    0.9379 C.ar      1 <0>        -0.1195
     15 C13         7.9235   -4.9669   -0.2682 C.ar      1 <0>         0.1042
     16 N3          7.2985   -3.8086   -0.3699 N.ar      1 <0>        -0.4596
     17 N4          6.1159   -3.2728    3.0284 N.pl3     1 <0>        -0.7183
     18 C14         5.7590   -1.8446    2.9609 C.3       1 <0>         0.1875
     19 C15         4.6512   -1.5350    3.9643 C.3       1 <0>        -0.1453
     20 C16         5.1391   -1.8445    5.3819 C.3       1 <0>        -0.1298
     21 C17         6.3531   -0.9668    5.7023 C.3       1 <0>         0.1008
     22 N5          7.3708   -1.1684    4.6617 N.am      1 <0>        -0.6227
     23 C18         6.9870   -0.9841    3.2548 C.3       1 <0>         0.1249
     24 C19         8.6310   -1.5150    4.9907 C.2       1 <0>         0.7144
     25 O1          9.4384   -1.7714    4.1185 O.2       1 <0>        -0.5728
     26 N6          8.9962   -1.5774    6.2865 N.am      1 <0>        -0.7380
     27 C20        10.3917   -1.8469    6.6421 C.3       1 <0>         0.2224
     28 C21        10.5334   -1.8643    8.1423 C.2       1 <0>        -0.0525
     29 C22        10.4040   -2.9455    8.9321 C.2       1 <0>        -0.1741
     30 C23        10.6153   -2.5099   10.2605 C.2       1 <0>        -0.2189
     31 C24        10.8612   -1.1887   10.2030 C.2       1 <0>        -0.0189
     32 O2         10.8160   -0.8042    8.9169 O.3       1 <0>        -0.1713
     33 H1         -0.9583    1.9121    0.0289 H         1 <0>         0.1352
     34 H2          1.1556    3.1748    0.0175 H         1 <0>         0.1353
     35 H3          3.3060    1.9756   -0.0121 H         1 <0>         0.1291
     36 H4          1.2285   -1.7491   -0.0260 H         1 <0>         0.1284
     37 H5         -0.9219   -0.5499    0.0021 H         1 <0>         0.1351
     38 H6          3.5942   -1.6441   -0.5605 H         1 <0>         0.1239
     39 H7          4.4612   -0.0896   -0.5552 H         1 <0>         0.1189
     40 H8          3.6114   -0.6437    2.0806 H         1 <0>         0.4468
     41 H9          7.4406   -5.5774    3.0166 H         1 <0>         0.1513
     42 H10         8.5137   -6.5798    1.0078 H         1 <0>         0.1557
     43 H11         8.3856   -5.3996   -1.1432 H         1 <0>         0.1768
     44 H12         5.9214   -3.7952    3.8223 H         1 <0>         0.4242
     45 H13         4.3831   -0.4807    3.8950 H         1 <0>         0.0992
     46 H14         3.7772   -2.1464    3.7398 H         1 <0>         0.0968
     47 H15         4.3413   -1.6363    6.0949 H         1 <0>         0.1045
     48 H16         5.4219   -2.8951    5.4481 H         1 <0>         0.0785
     49 H17         6.0520    0.0806    5.7208 H         1 <0>         0.0842
     50 H18         6.7619   -1.2487    6.6726 H         1 <0>         0.0926
     51 H19         7.8101   -1.2896    2.6088 H         1 <0>         0.1150
     52 H20         6.7496    0.0645    3.0755 H         1 <0>         0.0881
     53 H21         8.3352   -1.4439    6.9837 H         1 <0>         0.4002
     54 H22        10.6893   -2.8143    6.2377 H         1 <0>         0.1021
     55 H23        11.0297   -1.0672    6.2259 H         1 <0>         0.0875
     56 H24        10.1809   -3.9528    8.6129 H         1 <0>         0.1512
     57 H25        10.5848   -3.1208   11.1506 H         1 <0>         0.1540
     58 H26        11.0645   -0.5468   11.0473 H         1 <0>         0.2085
     59 H27         6.1878   -1.4756   -0.2847 H         1 <0>         0.4406
@<TRIPOS>BOND
     1    1    6 ar
     2    1    2 ar
     3    1   33 1
     4    2    3 ar
     5    2   34 1
     6    3    4 ar
     7    3   35 1
     8    4    5 ar
     9    4    7 1
    10    5    6 ar
    11    5   36 1
    12    6   37 1
    13    7    8 1
    14    7   38 1
    15    7   39 1
    16    8    9 2
    17    8   40 1
    18    9   18 1
    19    9   10 1
    20   10   11 1
    21   10   59 1
    22   11   16 ar
    23   11   12 ar
    24   12   13 ar
    25   12   17 1
    26   13   14 ar
    27   13   41 1
    28   14   15 ar
    29   14   42 1
    30   15   16 ar
    31   15   43 1
    32   17   18 1
    33   17   44 1
    34   18   23 1
    35   18   19 1
    36   19   20 1
    37   19   45 1
    38   19   46 1
    39   20   21 1
    40   20   47 1
    41   20   48 1
    42   21   22 1
    43   21   49 1
    44   21   50 1
    45   22   23 1
    46   22   24 am
    47   23   51 1
    48   23   52 1
    49   24   25 2
    50   24   26 am
    51   26   27 1
    52   26   53 1
    53   27   28 1
    54   27   54 1
    55   27   55 1
    56   28   32 1
    57   28   29 2
    58   29   30 1
    59   29   56 1
    60   30   31 2
    61   30   57 1
    62   31   32 1
    63   31   58 1
@<TRIPOS>MOLECULE
ZINC43157014
   54    55     0     0     0
SMALL
USER_CHARGES

@<TRIPOS>ATOM
      1 C1         -0.8308    1.1376   -0.1664 C.3       1 <0>        -0.1542
      2 C2         -0.8284   -0.3885   -0.2749 C.3       1 <0>        -0.1380
      3 C3          0.0405   -0.8141   -1.4601 C.3       1 <0>         0.1120
      4 N1          0.0429   -2.2755   -1.5640 N.am      1 <0>        -0.7025
      5 C4          0.7463   -2.8804   -2.5416 C.2       1 <0>         0.4990
      6 O1          1.3774   -2.2150   -3.3352 O.2       1 <0>        -0.5280
      7 C5          0.7487   -4.3836   -2.6484 C.3       1 <0>        -0.0320
      8 N2          1.5830   -4.7923   -3.7864 N.4       1 <0>        -0.3710
      9 C6          2.9771   -4.4105   -3.5312 C.3       1 <0>        -0.0127
     10 C7          3.8367   -4.7608   -4.7476 C.3       1 <0>        -0.1513
     11 C8          3.7576   -6.2684   -5.0047 C.3       1 <0>         0.1546
     12 C9          2.2914   -6.6674   -5.1958 C.3       1 <0>        -0.1617
     13 C10         1.4891   -6.2465   -3.9627 C.3       1 <0>        -0.0023
     14 N3          4.5170   -6.5999   -6.2129 N.am      1 <0>        -0.7400
     15 C11         5.0187   -7.8404   -6.3742 C.2       1 <0>         0.7063
     16 O2          4.8411   -8.6843   -5.5171 O.2       1 <0>        -0.5627
     17 N4          5.7174   -8.1453   -7.4857 N.am      1 <0>        -0.6796
     18 C12         6.3326   -9.3967   -7.6041 C.ar      1 <0>         0.1740
     19 C13         6.4419  -10.0028   -8.8498 C.ar      1 <0>        -0.1501
     20 C14         7.0490  -11.2382   -8.9681 C.ar      1 <0>        -0.0755
     21 C15         7.5491  -11.8757   -7.8491 C.ar      1 <0>        -0.1464
     22 C16         7.4430  -11.2750   -6.6000 C.ar      1 <0>        -0.0634
     23 C17         6.8388  -10.0305   -6.4791 C.ar      1 <0>        -0.1013
     24 S1          8.0805  -12.0885   -5.1730 S.3       1 <0>        -0.1107
     25 C18         8.7626  -13.6398   -5.8202 C.3       1 <0>        -0.1459
     26 H1          0.1886    1.4928   -0.0156 H         1 <0>         0.0610
     27 H2         -1.2330    1.5665   -1.0842 H         1 <0>         0.0610
     28 H3         -1.4498    1.4409    0.6780 H         1 <0>         0.0678
     29 H4         -0.4262   -0.8174    0.6430 H         1 <0>         0.0731
     30 H5         -1.8478   -0.7437   -0.4257 H         1 <0>         0.0730
     31 H6         -0.3616   -0.3853   -2.3780 H         1 <0>         0.0802
     32 H7          1.0599   -0.4590   -1.3094 H         1 <0>         0.0802
     33 H8         -0.4619   -2.8076   -0.9292 H         1 <0>         0.4116
     34 H9          1.1509   -4.8125   -1.7306 H         1 <0>         0.1609
     35 H10        -0.2707   -4.7388   -2.7992 H         1 <0>         0.1617
     36 H11         3.0314   -3.3379   -3.3452 H         1 <0>         0.1529
     37 H12         3.3468   -4.9488   -2.6584 H         1 <0>         0.1303
     38 H13         3.4680   -4.2228   -5.6210 H         1 <0>         0.0960
     39 H14         4.8718   -4.4782   -4.5554 H         1 <0>         0.1205
     40 H15         4.1734   -6.8058   -4.1524 H         1 <0>         0.1083
     41 H16         1.8907   -6.1690   -6.0784 H         1 <0>         0.0916
     42 H17         2.2219   -7.7476   -5.3239 H         1 <0>         0.1212
     43 H18         1.8905   -6.7456   -3.0808 H         1 <0>         0.1357
     44 H19         0.4448   -6.5292   -4.0954 H         1 <0>         0.1367
     45 H20         4.6586   -5.9267   -6.8966 H         1 <0>         0.4041
     46 H21         5.7937   -7.4975   -8.2036 H         1 <0>         0.4106
     47 H22         6.0515   -9.5076   -9.7266 H         1 <0>         0.1292
     48 H23         7.1326  -11.7069   -9.9375 H         1 <0>         0.1338
     49 H24         8.0225  -12.8416   -7.9448 H         1 <0>         0.1275
     50 H25         6.7589   -9.5594   -5.5106 H         1 <0>         0.1398
     51 H26         9.1861  -14.2204   -5.0006 H         1 <0>         0.1126
     52 H27         7.9695  -14.2133   -6.2999 H         1 <0>         0.0861
     53 H28         9.5422  -13.4178   -6.5489 H         1 <0>         0.0864
     54 H29         1.2579   -4.3314   -4.6231 H         1 <0>         0.4295
@<TRIPOS>BOND
     1    1    2 1
     2    1   26 1
     3    1   27 1
     4    1   28 1
     5    2    3 1
     6    2   29 1
     7    2   30 1
     8    3    4 1
     9    3   31 1
    10    3   32 1
    11    4    5 am
    12    4   33 1
    13    5    6 2
    14    5    7 1
    15    7    8 1
    16    7   34 1
    17    7   35 1
    18    8   13 1
    19    8    9 1
    20    8   54 1
    21    9   10 1
    22    9   36 1
    23    9   37 1
    24   10   11 1
    25   10   38 1
    26   10   39 1
    27   11   12 1
    28   11   14 1
    29   11   40 1
    30   12   13 1
    31   12   41 1
    32   12   42 1
    33   13   43 1
    34   13   44 1
    35   14   15 am
    36   14   45 1
    37   15   16 2
    38   15   17 am
    39   17   18 1
    40   17   46 1
    41   18   23 ar
    42   18   19 ar
    43   19   20 ar
    44   19   47 1
    45   20   21 ar
    46   20   48 1
    47   21   22 ar
    48   21   49 1
    49   22   23 ar
    50   22   24 1
    51   23   50 1
    52   24   25 1
    53   25   51 1
    54   25   52 1
    55   25   53 1
@<TRIPOS>MOLECULE
ZINC54407220
   57    59     0     0     0
SMALL
USER_CHARGES

@<TRIPOS>ATOM
      1 C1         -1.1539    1.3306    0.1825 C.3       1 <0>        -0.1182
      2 C2         -0.5417   -0.0441    0.1032 C.ar      1 <0>        -0.0527
      3 C3         -0.5763   -0.7576   -1.0950 C.ar      1 <0>        -0.1183
      4 C4         -0.0072   -2.0303   -1.1606 C.ar      1 <0>        -0.0958
      5 C5          0.5873   -2.5789   -0.0423 C.ar      1 <0>        -0.1098
      6 C6          0.6215   -1.8719    1.1449 C.ar      1 <0>        -0.1065
      7 C7          0.0626   -0.6015    1.2190 C.ar      1 <0>         0.1450
      8 N1          0.1055    0.1129    2.4219 N.am      1 <0>        -0.6707
      9 C8          0.3034   -0.5379    3.5854 C.2       1 <0>         0.7092
     10 O1          0.3561   -1.7525    3.6013 O.2       1 <0>        -0.5564
     11 N2          0.4430    0.1578    4.7314 N.am      1 <0>        -0.7434
     12 C9          0.6581   -0.5496    5.9961 C.3       1 <0>         0.1512
     13 H1          1.2538   -1.4472    5.8302 H         1 <0>         0.1347
     14 C10        -0.6972   -0.9169    6.6427 C.3       1 <0>        -0.1595
     15 C11        -0.4406   -0.6679    8.1503 C.3       1 <0>        -0.0009
     16 N3          0.4233    0.5403    8.1530 N.4       1 <0>        -0.3931
     17 C12         1.3545    0.3736    7.0131 C.3       1 <0>        -0.0161
     18 C13         1.1755    0.6224    9.4121 C.3       1 <0>         0.0834
     19 H2          1.7817   -0.2755    9.5324 H         1 <0>         0.1442
     20 C14         2.0855    1.8520    9.3833 C.3       1 <0>        -0.1778
     21 C15         0.2127    0.7368   10.5658 C.ar      1 <0>        -0.1392
     22 C16        -0.9187    1.5220   10.4466 C.ar      1 <0>        -0.1239
     23 C17        -1.8018    1.6269   11.5049 C.ar      1 <0>        -0.1037
     24 C18        -1.5537    0.9464   12.6822 C.ar      1 <0>        -0.0925
     25 C19        -0.4227    0.1605   12.8012 C.ar      1 <0>        -0.1037
     26 C20         0.4582    0.0522   11.7414 C.ar      1 <0>        -0.0897
     27 C21        -1.2143   -0.1677   -2.2914 C.2       1 <0>         0.5567
     28 O2         -1.5906    0.9879   -2.2721 O.2       1 <0>        -0.5287
     29 N4         -1.3785   -0.9114   -3.4034 N.am      1 <0>        -0.7292
     30 C22        -2.0105   -0.3269   -4.5887 C.3       1 <0>         0.0855
     31 H3         -0.4455    2.0664   -0.1982 H         1 <0>         0.0793
     32 H4         -2.0638    1.3582   -0.4170 H         1 <0>         0.1009
     33 H5         -1.3953    1.5616    1.2201 H         1 <0>         0.0483
     34 H6         -0.0323   -2.5861   -2.0863 H         1 <0>         0.1296
     35 H7          1.0268   -3.5640   -0.0949 H         1 <0>         0.1357
     36 H8          1.0881   -2.3062    2.0167 H         1 <0>         0.1599
     37 H9         -0.0073    1.0763    2.4181 H         1 <0>         0.4112
     38 H10         0.4010    1.1268    4.7187 H         1 <0>         0.4025
     39 H11        -1.4897   -0.2659    6.2737 H         1 <0>         0.1019
     40 H12        -0.9403   -1.9638    6.4606 H         1 <0>         0.1259
     41 H13        -1.3771   -0.4724    8.6727 H         1 <0>         0.1376
     42 H14         0.0807   -1.5146    8.5968 H         1 <0>         0.1385
     43 H15         2.2833   -0.0835    7.3543 H         1 <0>         0.1485
     44 H16         1.5599    1.3416    6.5560 H         1 <0>         0.1381
     45 H17         1.4793    2.7499    9.2630 H         1 <0>         0.0812
     46 H18         2.6436    1.9129   10.3176 H         1 <0>         0.1073
     47 H19         2.7818    1.7693    8.5489 H         1 <0>         0.0838
     48 H20        -1.1126    2.0537    9.5267 H         1 <0>         0.1164
     49 H21        -2.6855    2.2409   11.4119 H         1 <0>         0.1350
     50 H22        -2.2433    1.0290   13.5093 H         1 <0>         0.1360
     51 H23        -0.2287   -0.3709   13.7211 H         1 <0>         0.1373
     52 H24         1.3399   -0.5648   11.8330 H         1 <0>         0.1336
     53 H25        -1.0782   -1.8336   -3.4188 H         1 <0>         0.4025
     54 H26        -1.4259    0.5283   -4.9279 H         1 <0>         0.0636
     55 H27        -2.0559   -1.0734   -5.3817 H         1 <0>         0.0796
     56 H28        -3.0201   -0.0007   -4.3386 H         1 <0>         0.0632
     57 H29        -0.1377    1.3694    8.0266 H         1 <0>         0.4227
@<TRIPOS>BOND
     1    1    2 1
     2    1   31 1
     3    1   32 1
     4    1   33 1
     5    2    7 ar
     6    2    3 ar
     7    3    4 ar
     8    3   27 1
     9    4    5 ar
    10    4   34 1
    11    5    6 ar
    12    5   35 1
    13    6    7 ar
    14    6   36 1
    15    7    8 1
    16    8    9 am
    17    8   37 1
    18    9   10 2
    19    9   11 am
    20   11   12 1
    21   11   38 1
    22   12   13 1
    23   12   17 1
    24   12   14 1
    25   14   15 1
    26   14   39 1
    27   14   40 1
    28   15   16 1
    29   15   41 1
    30   15   42 1
    31   16   17 1
    32   16   18 1
    33   16   57 1
    34   17   43 1
    35   17   44 1
    36   18   19 1
    37   18   20 1
    38   18   21 1
    39   20   45 1
    40   20   46 1
    41   20   47 1
    42   21   26 ar
    43   21   22 ar
    44   22   23 ar
    45   22   48 1
    46   23   24 ar
    47   23   49 1
    48   24   25 ar
    49   24   50 1
    50   25   26 ar
    51   25   51 1
    52   26   52 1
    53   27   28 2
    54   27   29 am
    55   29   30 1
    56   29   53 1
    57   30   54 1
    58   30   55 1
    59   30   56 1
@<TRIPOS>MOLECULE
ZINC63271410
   54    57     0     0     0
SMALL
USER_CHARGES

@<TRIPOS>ATOM
      1 C1         -0.0333    1.3452    0.0164 C.ar      1 <0>        -0.1122
      2 C2          1.1513    2.0576    0.0065 C.ar      1 <0>        -0.1157
      3 C3          2.3605    1.3880   -0.0096 C.ar      1 <0>        -0.1066
      4 C4          2.3852    0.0059   -0.0153 C.ar      1 <0>        -0.1247
      5 C5          1.2006   -0.7066   -0.0045 C.ar      1 <0>        -0.1091
      6 C6         -0.0086   -0.0369    0.0102 C.ar      1 <0>        -0.1149
      7 C7          3.7034   -0.7242   -0.0339 C.3       1 <0>         0.1402
      8 H1          4.4776   -0.0871    0.3938 H         1 <0>         0.1169
      9 C8          4.0715   -1.0755   -1.4767 C.3       1 <0>         0.0918
     10 N1          5.3530   -1.7852   -1.4948 N.am      1 <0>        -0.7153
     11 C9          5.8794   -2.1961   -2.6655 C.2       1 <0>         0.5104
     12 O1          5.2922   -1.9783   -3.7041 O.2       1 <0>        -0.5401
     13 C10         7.1977   -2.9261   -2.6841 C.3       1 <0>         0.1147
     14 N2          7.5501   -3.2626   -4.0656 N.am      1 <0>        -0.7262
     15 C11         8.6959   -3.9223   -4.3272 C.2       1 <0>         0.7136
     16 O2          9.4803   -4.1582   -3.4287 O.2       1 <0>        -0.5697
     17 N3          8.9722   -4.3205   -5.5848 N.am      1 <0>        -0.6311
     18 C12         8.0825   -3.9272   -6.6822 C.3       1 <0>         0.1053
     19 C13         8.8881   -3.1568   -7.7443 C.3       1 <0>        -0.1022
     20 C14        10.1600   -3.9357   -7.9717 C.2       1 <0>         0.0609
     21 C15        10.7273   -4.3849   -9.0844 C.ar      1 <0>        -0.1637
     22 C16        10.3856   -4.1960  -10.5035 C.ar      1 <0>         0.0007
     23 C17        11.1858   -4.8284  -11.4020 C.ar      1 <0>        -0.1597
     24 C18        12.2783   -5.6204  -11.0354 C.ar      1 <0>         0.0552
     25 C19        12.6696   -5.8422   -9.7552 C.ar      1 <0>        -0.2083
     26 C20        11.9106   -5.2224   -8.7203 C.ar      1 <0>         0.3340
     27 N4         12.0722   -5.2441   -7.4302 N.pl3     1 <0>        -0.5739
     28 C21        11.0584   -4.3808   -6.8235 C.3       1 <0>         0.0712
     29 H2         11.5255   -3.5196   -6.3459 H         1 <0>         0.1772
     30 C22        10.1667   -5.1401   -5.8429 C.3       1 <0>         0.1374
     31 O3          3.5946   -1.9234    0.7355 O.3       1 <0>        -0.5498
     32 H3         -0.9779    1.8683    0.0335 H         1 <0>         0.1262
     33 H4          1.1321    3.1375    0.0110 H         1 <0>         0.1269
     34 H5          3.2860    1.9446   -0.0180 H         1 <0>         0.1246
     35 H6          1.2199   -1.7864   -0.0094 H         1 <0>         0.1206
     36 H7         -0.9341   -0.5936    0.0182 H         1 <0>         0.1265
     37 H8          3.2974   -1.7126   -1.9044 H         1 <0>         0.0775
     38 H9          4.1545   -0.1608   -2.0636 H         1 <0>         0.0843
     39 H10         5.8227   -1.9594   -0.6641 H         1 <0>         0.4115
     40 H11         7.9718   -2.2891   -2.2564 H         1 <0>         0.1064
     41 H12         7.1147   -3.8409   -2.0972 H         1 <0>         0.1059
     42 H13         6.9589   -3.0105   -4.7921 H         1 <0>         0.4095
     43 H14         7.6457   -4.8184   -7.1331 H         1 <0>         0.0942
     44 H15         7.2881   -3.2892   -6.2951 H         1 <0>         0.1120
     45 H16         8.3185   -3.0938   -8.6715 H         1 <0>         0.1252
     46 H17         9.1233   -2.1564   -7.3810 H         1 <0>         0.1270
     47 H18         9.5470   -3.5899  -10.8130 H         1 <0>         0.1697
     48 H19        10.9662   -4.7136  -12.4532 H         1 <0>         0.1550
     49 H20        12.8491   -6.0873  -11.8244 H         1 <0>         0.1578
     50 H21        13.5233   -6.4640   -9.5293 H         1 <0>         0.1690
     51 H22        10.7065   -5.3097   -4.9112 H         1 <0>         0.1327
     52 H23         9.8722   -6.0948   -6.2788 H         1 <0>         0.0959
     53 H24         2.9230   -2.5390    0.4115 H         1 <0>         0.3786
     54 H25        12.7494   -5.7473   -6.9515 H         1 <0>         0.4567
@<TRIPOS>BOND
     1    1    6 ar
     2    1    2 ar
     3    1   32 1
     4    2    3 ar
     5    2   33 1
     6    3    4 ar
     7    3   34 1
     8    4    5 ar
     9    4    7 1
    10    5    6 ar
    11    5   35 1
    12    6   36 1
    13    7    8 1
    14    7    9 1
    15    7   31 1
    16    9   10 1
    17    9   37 1
    18    9   38 1
    19   10   11 am
    20   10   39 1
    21   11   12 2
    22   11   13 1
    23   13   14 1
    24   13   40 1
    25   13   41 1
    26   14   15 am
    27   14   42 1
    28   15   16 2
    29   15   17 am
    30   17   30 1
    31   17   18 1
    32   18   19 1
    33   18   43 1
    34   18   44 1
    35   19   20 1
    36   19   45 1
    37   19   46 1
    38   20   28 1
    39   20   21 2
    40   21   26 ar
    41   21   22 ar
    42   22   23 ar
    43   22   47 1
    44   23   24 ar
    45   23   48 1
    46   24   25 ar
    47   24   49 1
    48   25   26 ar
    49   25   50 1
    50   26   27 2
    51   27   28 1
    52   27   54 1
    53   28   29 1
    54   28   30 1
    55   30   51 1
    56   30   52 1
    57   31   53 1
@<TRIPOS>MOLECULE
ZINC66679650
   52    54     0     0     0
SMALL
USER_CHARGES

@<TRIPOS>ATOM
      1 C1         -0.0359    1.5406    0.0290 C.3       1 <0>        -0.1830
      2 C2         -0.0103    0.0109    0.0114 C.3       1 <0>         0.0277
      3 C3          0.7349   -0.5009    1.2458 C.3       1 <0>        -0.1845
      4 N1         -1.3868   -0.5020    0.0228 N.4       1 <0>        -0.3930
      5 C4         -2.0986   -0.0863   -1.2128 C.3       1 <0>        -0.0040
      6 C5         -3.2491   -1.1181   -1.3234 C.3       1 <0>        -0.1454
      7 C6         -2.5858   -2.4285   -0.8410 C.3       1 <0>        -0.1217
      8 H1         -2.2507   -3.0191   -1.6936 H         1 <0>         0.1201
      9 C7         -1.3802   -1.9809    0.0061 C.3       1 <0>        -0.0013
     10 C8         -3.5656   -3.2370    0.0117 C.3       1 <0>         0.1418
     11 N2         -4.6767   -3.6970   -0.8251 N.am      1 <0>        -0.7464
     12 C9         -5.6677   -4.4332   -0.2843 C.2       1 <0>         0.7070
     13 O1         -5.6395   -4.7157    0.8980 O.2       1 <0>        -0.5649
     14 N3         -6.6899   -4.8563   -1.0541 N.am      1 <0>        -0.6811
     15 C10        -7.6680   -5.7009   -0.5164 C.ar      1 <0>         0.1530
     16 C11        -8.0641   -5.5512    0.8072 C.ar      1 <0>        -0.1058
     17 C12        -9.0290   -6.3834    1.3418 C.ar      1 <0>        -0.0976
     18 C13        -9.6050   -7.3683    0.5641 C.ar      1 <0>        -0.1079
     19 C14        -9.2142   -7.5253   -0.7645 C.ar      1 <0>        -0.0124
     20 C15        -8.2458   -6.6832   -1.3057 C.ar      1 <0>        -0.1103
     21 C16        -9.8317   -8.5833   -1.6014 C.2       1 <0>         0.1047
     22 C17       -10.8225   -9.4290   -1.0502 C.2       1 <0>        -0.0630
     23 C18       -11.3681  -10.3899   -1.8493 C.2       1 <0>        -0.1750
     24 C19       -10.9085  -10.4811   -3.1818 C.2       1 <0>         0.4766
     25 O2        -11.3679  -11.3252   -3.9341 O.2       1 <0>        -0.5234
     26 N4         -9.9603   -9.6298   -3.6160 N.am      1 <0>        -0.4433
     27 H2         -9.6492   -9.6975   -4.5323 H         1 <0>         0.4422
     28 N5         -9.4606   -8.7274   -2.8517 N.2       1 <0>        -0.2149
     29 H3          0.9855    1.9212    0.0205 H         1 <0>         0.1054
     30 H4         -0.5668    1.9052   -0.8504 H         1 <0>         0.0802
     31 H5         -0.5446    1.8852    0.9293 H         1 <0>         0.0808
     32 H6          0.4984   -0.3336   -0.8889 H         1 <0>         0.1358
     33 H7          0.2262   -0.1563    2.1461 H         1 <0>         0.0812
     34 H8          0.7531   -1.5906    1.2333 H         1 <0>         0.0810
     35 H9          1.7562   -0.1203    1.2373 H         1 <0>         0.1052
     36 H10        -2.4959    0.9232   -1.1067 H         1 <0>         0.1368
     37 H11        -1.4384   -0.1520   -2.0777 H         1 <0>         0.1349
     38 H12        -4.0781   -0.8427   -0.6715 H         1 <0>         0.1028
     39 H13        -3.5842   -1.2129   -2.3563 H         1 <0>         0.1183
     40 H14        -0.4556   -2.3430   -0.4435 H         1 <0>         0.1375
     41 H15        -1.4772   -2.3642    1.0219 H         1 <0>         0.1368
     42 H16        -3.0513   -4.0982    0.4381 H         1 <0>         0.0829
     43 H17        -3.9514   -2.6097    0.8152 H         1 <0>         0.0764
     44 H18        -4.6992   -3.4716   -1.7682 H         1 <0>         0.4005
     45 H19        -6.7478   -4.5755   -1.9808 H         1 <0>         0.4090
     46 H20        -7.6164   -4.7827    1.4197 H         1 <0>         0.1416
     47 H21        -9.3333   -6.2634    2.3710 H         1 <0>         0.1350
     48 H22       -10.3584   -8.0173    0.9855 H         1 <0>         0.1332
     49 H23        -7.9425   -6.7983   -2.3358 H         1 <0>         0.1368
     50 H24       -11.1382   -9.3169   -0.0235 H         1 <0>         0.1580
     51 H25       -12.1276  -11.0603   -1.4750 H         1 <0>         0.1696
     52 H26        -1.8772   -0.1655    0.8379 H         1 <0>         0.4259
@<TRIPOS>BOND
     1    1    2 1
     2    1   29 1
     3    1   30 1
     4    1   31 1
     5    2    3 1
     6    2    4 1
     7    2   32 1
     8    3   33 1
     9    3   34 1
    10    3   35 1
    11    4    9 1
    12    4    5 1
    13    4   52 1
    14    5    6 1
    15    5   36 1
    16    5   37 1
    17    6    7 1
    18    6   38 1
    19    6   39 1
    20    7    8 1
    21    7    9 1
    22    7   10 1
    23    9   40 1
    24    9   41 1
    25   10   11 1
    26   10   42 1
    27   10   43 1
    28   11   12 am
    29   11   44 1
    30   12   13 2
    31   12   14 am
    32   14   15 1
    33   14   45 1
    34   15   20 ar
    35   15   16 ar
    36   16   17 ar
    37   16   46 1
    38   17   18 ar
    39   17   47 1
    40   18   19 ar
    41   18   48 1
    42   19   20 ar
    43   19   21 1
    44   20   49 1
    45   21   28 2
    46   21   22 1
    47   22   23 2
    48   22   50 1
    49   23   24 1
    50   23   51 1
    51   24   25 2
    52   24   26 am
    53   26   27 1
    54   26   28 1
@<TRIPOS>MOLECULE
ZINC67654431
   56    59     0     0     0
SMALL
USER_CHARGES

@<TRIPOS>ATOM
      1 C1         -0.0184    1.5028    0.0103 C.3       1 <0>        -0.1181
      2 C2          0.0021   -0.0041    0.0020 C.ar      1 <0>        -0.0633
      3 C3          0.0057   -0.6866   -1.2063 C.ar      1 <0>        -0.1185
      4 C4          0.0241   -2.0522   -1.2352 C.ar      1 <0>        -0.0662
      5 C5          0.0400   -2.7738   -0.0386 C.ar      1 <0>         0.0428
      6 C6          0.0368   -2.0832    1.1851 C.ar      1 <0>         0.0579
      7 C7          0.0228   -0.6950    1.1947 C.ar      1 <0>        -0.0817
      8 C8          0.0245    0.0530    2.5030 C.3       1 <0>        -0.1168
      9 N1          0.0549   -3.0514    2.1690 N.pl3     1 <0>        -0.5934
     10 C9          0.0682   -4.2609    1.5464 C.2       1 <0>         0.2759
     11 N2          0.0595   -4.0992    0.2554 N.2       1 <0>        -0.4819
     12 C10         0.0903   -5.5936    2.2495 C.3       1 <0>        -0.0522
     13 C11        -1.0823   -6.4469    1.7620 C.3       1 <0>         0.1347
     14 N3         -1.0608   -7.7425    2.4455 N.pl3     1 <0>        -0.7070
     15 C12        -2.0321   -8.6897    2.1653 C.ar      1 <0>         0.4521
     16 C13        -3.0337   -8.4234    1.2290 C.ar      1 <0>        -0.2937
     17 C14        -3.9789   -9.3998    0.9849 C.ar      1 <0>         0.1969
     18 N4         -3.9061  -10.5492    1.6416 N.ar      1 <0>        -0.5574
     19 C15        -2.9485  -10.7701    2.5193 C.ar      1 <0>         0.3785
     20 N5         -2.0227   -9.8690    2.7794 N.ar      1 <0>        -0.5689
     21 C16        -2.9073  -12.0922    3.2414 C.3       1 <0>        -0.0922
     22 C17        -5.0805   -9.1617   -0.0156 C.3       1 <0>        -0.0529
     23 H1         -5.4359  -10.1177   -0.4001 H         1 <0>         0.1180
     24 C18        -4.5459   -8.3122   -1.1722 C.3       1 <0>        -0.1348
     25 C19        -5.6913   -8.0104   -2.1429 C.3       1 <0>        -0.1453
     26 C20        -6.8235   -7.3128   -1.3861 C.3       1 <0>        -0.0103
     27 N6         -7.3088   -8.1860   -0.3106 N.4       1 <0>        -0.5027
     28 C21        -6.2358   -8.4224    0.6627 C.3       1 <0>         0.0008
     29 H2          1.0042    1.8801    0.0026 H         1 <0>         0.0759
     30 H3         -0.5455    1.8639   -0.8728 H         1 <0>         0.0719
     31 H4         -0.5286    1.8543    0.9071 H         1 <0>         0.0701
     32 H5         -0.0065   -0.1325   -2.1332 H         1 <0>         0.1328
     33 H6          0.0261   -2.5733   -2.1811 H         1 <0>         0.1303
     34 H7         -1.0026    0.2191    2.8279 H         1 <0>         0.0717
     35 H8          0.5536   -0.5320    3.2553 H         1 <0>         0.0581
     36 H9          0.5238    1.0130    2.3719 H         1 <0>         0.0783
     37 H10         1.0277   -6.1047    2.0299 H         1 <0>         0.1095
     38 H11         0.0044   -5.4385    3.3250 H         1 <0>         0.0947
     39 H12        -2.0196   -5.9358    1.9816 H         1 <0>         0.0689
     40 H13        -0.9964   -6.6020    0.6865 H         1 <0>         0.0864
     41 H14        -0.3664   -7.9372    3.0942 H         1 <0>         0.4141
     42 H15        -3.0682   -7.4773    0.7092 H         1 <0>         0.1440
     43 H16        -2.3047  -12.7991    2.6711 H         1 <0>         0.0925
     44 H17        -2.4671  -11.9533    4.2288 H         1 <0>         0.0902
     45 H18        -3.9204  -12.4804    3.3465 H         1 <0>         0.0895
     46 H19        -4.1429   -7.3776   -0.7821 H         1 <0>         0.0878
     47 H20        -3.7607   -8.8595   -1.6939 H         1 <0>         0.0993
     48 H21        -5.3312   -7.3598   -2.9398 H         1 <0>         0.1172
     49 H22        -6.0601   -8.9422   -2.5717 H         1 <0>         0.0920
     50 H23        -6.4538   -6.3811   -0.9580 H         1 <0>         0.1309
     51 H24        -7.6406   -7.0963   -2.0743 H         1 <0>         0.1363
     52 H25        -8.0901   -7.7459    0.1519 H         1 <0>         0.4342
     53 H26        -6.6184   -9.0250    1.4864 H         1 <0>         0.1381
     54 H27        -5.8791   -7.4671    1.0477 H         1 <0>         0.1321
     55 H28        -7.6055   -9.0673   -0.7024 H         1 <0>         0.4301
     56 H29         0.0580   -2.8978    3.1268 H         1 <0>         0.4229
@<TRIPOS>BOND
     1    1    2 1
     2    1   29 1
     3    1   30 1
     4    1   31 1
     5    2    7 ar
     6    2    3 ar
     7    3    4 ar
     8    3   32 1
     9    4    5 ar
    10    4   33 1
    11    5   11 1
    12    5    6 ar
    13    6    7 ar
    14    6    9 1
    15    7    8 1
    16    8   34 1
    17    8   35 1
    18    8   36 1
    19    9   10 1
    20    9   56 1
    21   10   11 2
    22   10   12 1
    23   12   13 1
    24   12   37 1
    25   12   38 1
    26   13   14 1
    27   13   39 1
    28   13   40 1
    29   14   15 1
    30   14   41 1
    31   15   20 ar
    32   15   16 ar
    33   16   17 ar
    34   16   42 1
    35   17   18 ar
    36   17   22 1
    37   18   19 ar
    38   19   20 ar
    39   19   21 1
    40   21   43 1
    41   21   44 1
    42   21   45 1
    43   22   23 1
    44   22   28 1
    45   22   24 1
    46   24   25 1
    47   24   46 1
    48   24   47 1
    49   25   26 1
    50   25   48 1
    51   25   49 1
    52   26   27 1
    53   26   50 1
    54   26   51 1
    55   27   28 1
    56   27   52 1
    57   27   55 1
    58   28   53 1
    59   28   54 1
@<TRIPOS>MOLECULE
ZINC14474057
   58    62     0     0     0
SMALL
USER_CHARGES
(3aS,4R,9bR)-N-(2,4-dimethylphenyl)-4-(2-hydroxyphenyl)-3a,4,5,9b-tetrahydro-3H-cyclopenta[c]quinoline-8-sulfonamide
@<TRIPOS>ATOM
      1 C1         -4.2818    1.6444    2.1112 C.3       1 <0>        -0.1148
      2 C2         -2.7774    1.6307    2.1976 C.ar      1 <0>        -0.0958
      3 C3         -2.1509    1.9854    3.3786 C.ar      1 <0>        -0.0957
      4 C4         -0.7725    1.9744    3.4611 C.ar      1 <0>        -0.1654
      5 C5         -0.0150    1.6061    2.3562 C.ar      1 <0>         0.1507
      6 C6         -0.6474    1.2501    1.1719 C.ar      1 <0>        -0.0980
      7 C7         -2.0264    1.2683    1.0947 C.ar      1 <0>        -0.0988
      8 C8          0.1702    0.8504   -0.0292 C.3       1 <0>        -0.1136
      9 N1          1.3794    1.5934    2.4363 N.pl3     1 <0>        -1.0545
     10 S1          2.1237    1.1412    3.8448 S.o2      1 <0>         2.6923
     11 O1          3.5171    1.0928    3.5703 O.2       1 <0>        -0.9544
     12 O2          1.5776    1.9563    4.8726 O.2       1 <0>        -0.9522
     13 C9          1.6212   -0.5115    4.1922 C.ar      1 <0>        -0.7203
     14 C10         0.4940   -0.7419    4.9600 C.ar      1 <0>         0.0261
     15 C11         0.1006   -2.0380    5.2270 C.ar      1 <0>        -0.2077
     16 C12         0.8403   -3.1050    4.7327 C.ar      1 <0>         0.2745
     17 C13         1.9735   -2.8789    3.9666 C.ar      1 <0>        -0.1546
     18 C14         2.3570   -1.5710    3.7021 C.ar      1 <0>         0.0248
     19 C15         2.8014   -3.9945    3.4129 C.3       1 <0>        -0.0138
     20 H1          3.8574   -3.7847    3.5831 H         1 <0>         0.0935
     21 C16         2.5695   -4.1696    1.9308 C.2       1 <0>        -0.1624
     22 C17         2.6111   -5.4402    1.6119 C.2       1 <0>        -0.1477
     23 C18         2.8817   -6.2875    2.8398 C.3       1 <0>        -0.1065
     24 C19         2.4441   -5.3666    4.0167 C.3       1 <0>        -0.0944
     25 H2          2.9694   -5.5689    4.9501 H         1 <0>         0.0993
     26 C20         0.9245   -5.4962    4.1555 C.3       1 <0>         0.2036
     27 H3          0.6780   -6.4583    4.6045 H         1 <0>         0.1009
     28 N2          0.4315   -4.4132    5.0130 N.pl3     1 <0>        -0.7377
     29 C21         0.2831   -5.3948    2.7956 C.ar      1 <0>        -0.1092
     30 C22        -0.0888   -4.1612    2.2968 C.ar      1 <0>        -0.0886
     31 C23        -0.6729   -4.0670    1.0473 C.ar      1 <0>        -0.1265
     32 C24        -0.8960   -5.2077    0.2980 C.ar      1 <0>        -0.1045
     33 C25        -0.5308   -6.4438    0.7944 C.ar      1 <0>        -0.1444
     34 C26         0.0604   -6.5405    2.0460 C.ar      1 <0>         0.1143
     35 O3          0.4202   -7.7556    2.5368 O.3       1 <0>        -0.4933
     36 H4         -4.6179    2.6277    1.7820 H         1 <0>         0.0708
     37 H5         -4.6116    0.8898    1.3971 H         1 <0>         0.0655
     38 H6         -4.7041    1.4257    3.0920 H         1 <0>         0.0668
     39 H7         -2.7403    2.2716    4.2371 H         1 <0>         0.1286
     40 H8         -0.2839    2.2514    4.3835 H         1 <0>         0.1601
     41 H9         -2.5186    0.9956    0.1729 H         1 <0>         0.1254
     42 H10         0.3414   -0.2259   -0.0104 H         1 <0>         0.0727
     43 H11         1.1275    1.3710   -0.0067 H         1 <0>         0.0634
     44 H12        -0.3670    1.1170   -0.9394 H         1 <0>         0.0703
     45 H13         1.9117    1.8495    1.6669 H         1 <0>         0.4246
     46 H14        -0.0779    0.0889    5.3462 H         1 <0>         0.1395
     47 H15        -0.7807   -2.2224    5.8234 H         1 <0>         0.1324
     48 H16         3.2384   -1.3812    3.1075 H         1 <0>         0.1369
     49 H17         2.3949   -3.3634    1.2337 H         1 <0>         0.1221
     50 H18         2.4715   -5.8293    0.6141 H         1 <0>         0.1212
     51 H19         3.9422   -6.5281    2.9140 H         1 <0>         0.0760
     52 H20         2.2809   -7.1967    2.8195 H         1 <0>         0.1016
     53 H21        -0.1631   -4.5996    5.7564 H         1 <0>         0.4090
     54 H22         0.0806   -3.2692    2.8817 H         1 <0>         0.1326
     55 H23        -0.9592   -3.1014    0.6574 H         1 <0>         0.1201
     56 H24        -1.3565   -5.1320   -0.6759 H         1 <0>         0.1233
     57 H25        -0.7049   -7.3344    0.2087 H         1 <0>         0.1264
     58 H26        -0.2732   -8.1941    3.0485 H         1 <0>         0.3852
@<TRIPOS>BOND
     1    1    2 1
     2    1   36 1
     3    1   37 1
     4    1   38 1
     5    2    7 ar
     6    2    3 ar
     7    3    4 ar
     8    3   39 1
     9    4    5 ar
    10    4   40 1
    11    5    6 ar
    12    5    9 1
    13    6    7 ar
    14    6    8 1
    15    7   41 1
    16    8   42 1
    17    8   43 1
    18    8   44 1
    19    9   10 1
    20    9   45 1
    21   10   11 2
    22   10   12 2
    23   10   13 1
    24   13   18 ar
    25   13   14 ar
    26   14   15 ar
    27   14   46 1
    28   15   16 ar
    29   15   47 1
    30   16   28 1
    31   16   17 ar
    32   17   18 ar
    33   17   19 1
    34   18   48 1
    35   19   20 1
    36   19   24 1
    37   19   21 1
    38   21   22 2
    39   21   49 1
    40   22   23 1
    41   22   50 1
    42   23   24 1
    43   23   51 1
    44   23   52 1
    45   24   25 1
    46   24   26 1
    47   26   27 1
    48   26   28 1
    49   26   29 1
    50   28   53 1
    51   29   34 ar
    52   29   30 ar
    53   30   31 ar
    54   30   54 1
    55   31   32 ar
    56   31   55 1
    57   32   33 ar
    58   32   56 1
    59   33   34 ar
    60   33   57 1
    61   34   35 1
    62   35   58 1
@<TRIPOS>MOLECULE
ZINC16885196
   54    57     0     0     0
SMALL
USER_CHARGES
2-[(2-aminophenyl)amino]-3-[(2-chlorophenyl)methyl]-5-[(4-chlorophenyl)methyl]-6-methyl-pyrimidin-4-one
@<TRIPOS>ATOM
      1 C1          3.6804    2.7832    1.6482 C.3       1 <0>        -0.1150
      2 C2          2.4178    3.2573    2.3207 C.2       1 <0>         0.2258
      3 C3          1.3272    2.4387    2.3769 C.2       1 <0>        -0.3088
      4 C4          0.1585    2.9057    3.0041 C.2       1 <0>         0.5520
      5 O1         -0.8364    2.2022    3.0679 O.2       1 <0>        -0.5296
      6 N1          0.1603    4.1451    3.5396 N.am      1 <0>        -0.5359
      7 C5          1.2780    4.9170    3.4528 C.2       1 <0>         0.6320
      8 N2          2.3681    4.4738    2.8583 N.2       1 <0>        -0.5742
      9 N3          1.2703    6.1759    3.9929 N.pl3     1 <0>        -0.6330
     10 C6          2.4293    6.9624    3.9532 C.ar      1 <0>         0.0714
     11 C7          3.3516    6.7906    2.9320 C.ar      1 <0>        -0.0664
     12 C8          4.4922    7.5706    2.8924 C.ar      1 <0>        -0.1582
     13 C9          4.7223    8.5167    3.8742 C.ar      1 <0>        -0.0817
     14 C10         3.8109    8.6912    4.8988 C.ar      1 <0>        -0.1811
     15 C11         2.6614    7.9163    4.9438 C.ar      1 <0>         0.1937
     16 N4          1.7377    8.0908    5.9802 N.pl3     1 <0>        -0.8824
     17 C12        -1.0386    4.6599    4.2058 C.3       1 <0>         0.1296
     18 C13        -2.0375    5.1048    3.1688 C.ar      1 <0>        -0.1127
     19 C14        -3.0083    4.2275    2.7229 C.ar      1 <0>        -0.0652
     20 C15        -3.9242    4.6352    1.7714 C.ar      1 <0>        -0.1131
     21 C16        -3.8708    5.9210    1.2659 C.ar      1 <0>        -0.0925
     22 C17        -2.9011    6.7991    1.7113 C.ar      1 <0>        -0.1103
     23 C18        -1.9868    6.3929    2.6672 C.ar      1 <0>        -0.0287
     24 Cl1        -0.7728    7.4977    3.2325 Cl        1 <0>        -0.0559
     25 C19         1.3728    1.0594    1.7714 C.3       1 <0>        -0.0067
     26 C20         0.7290    1.0873    0.4092 C.ar      1 <0>        -0.0675
     27 C21         1.4848    1.3971   -0.7061 C.ar      1 <0>        -0.1060
     28 C22         0.8950    1.4224   -1.9558 C.ar      1 <0>        -0.1123
     29 C23        -0.4522    1.1376   -2.0905 C.ar      1 <0>        -0.0395
     30 C24        -1.2081    0.8277   -0.9740 C.ar      1 <0>        -0.1116
     31 C25        -0.6172    0.8027    0.2752 C.ar      1 <0>        -0.0904
     32 Cl2        -1.1938    1.1697   -3.6597 Cl        1 <0>        -0.0758
     33 H1          3.6624    3.0713    0.5971 H         1 <0>         0.0873
     34 H2          4.5437    3.2373    2.1347 H         1 <0>         0.0843
     35 H3          3.7483    1.6982    1.7265 H         1 <0>         0.0864
     36 H4          0.4625    6.5229    4.4028 H         1 <0>         0.4096
     37 H5          3.1769    6.0500    2.1656 H         1 <0>         0.1591
     38 H6          5.2078    7.4378    2.0944 H         1 <0>         0.1237
     39 H7          5.6168    9.1209    3.8406 H         1 <0>         0.1229
     40 H8          3.9941    9.4306    5.6644 H         1 <0>         0.1246
     41 H9          0.9749    7.4963    6.0552 H         1 <0>         0.3875
     42 H10         1.8602    8.8062    6.6237 H         1 <0>         0.4036
     43 H11        -1.4783    3.8744    4.8204 H         1 <0>         0.1185
     44 H12        -0.7684    5.5066    4.8368 H         1 <0>         0.0894
     45 H13        -3.0508    3.2231    3.1177 H         1 <0>         0.1458
     46 H14        -4.6822    3.9493    1.4231 H         1 <0>         0.1350
     47 H15        -4.5872    6.2392    0.5230 H         1 <0>         0.1371
     48 H16        -2.8596    7.8035    1.3165 H         1 <0>         0.1377
     49 H17         0.8341    0.3627    2.4137 H         1 <0>         0.0834
     50 H18         2.4101    0.7384    1.6766 H         1 <0>         0.0871
     51 H19         2.5374    1.6150   -0.6013 H         1 <0>         0.1298
     52 H20         1.4856    1.6647   -2.8269 H         1 <0>         0.1311
     53 H21        -2.2599    0.6056   -1.0784 H         1 <0>         0.1296
     54 H22        -1.2073    0.5612    1.1469 H         1 <0>         0.1363
@<TRIPOS>BOND
     1    1    2 1
     2    1   33 1
     3    1   34 1
     4    1   35 1
     5    2    8 1
     6    2    3 2
     7    3    4 1
     8    3   25 1
     9    4    5 2
    10    4    6 am
    11    6    7 1
    12    6   17 1
    13    7    8 2
    14    7    9 1
    15    9   10 1
    16    9   36 1
    17   10   15 ar
    18   10   11 ar
    19   11   12 ar
    20   11   37 1
    21   12   13 ar
    22   12   38 1
    23   13   14 ar
    24   13   39 1
    25   14   15 ar
    26   14   40 1
    27   15   16 1
    28   16   41 1
    29   16   42 1
    30   17   18 1
    31   17   43 1
    32   17   44 1
    33   18   23 ar
    34   18   19 ar
    35   19   20 ar
    36   19   45 1
    37   20   21 ar
    38   20   46 1
    39   21   22 ar
    40   21   47 1
    41   22   23 ar
    42   22   48 1
    43   23   24 1
    44   25   26 1
    45   25   49 1
    46   25   50 1
    47   26   31 ar
    48   26   27 ar
    49   27   28 ar
    50   27   51 1
    51   28   29 ar
    52   28   52 1
    53   29   30 ar
    54   29   32 1
    55   30   31 ar
    56   30   53 1
    57   31   54 1
@<TRIPOS>MOLECULE
ZINC21258079
   68    73     0     0     0
SMALL
USER_CHARGES
(6S,9R)-6-(1H-indol-3-yl)-9-(4-isopropoxy-3-methoxy-phenyl)-5,6,8,9,10,11-hexahydrobenzo[c][1,5]benzodiazepin-7-one
@<TRIPOS>ATOM
      1 C1         -2.8542    4.3831   -5.5427 C.3       1 <0>        -0.1819
      2 C2         -3.8998    3.9790   -4.5014 C.3       1 <0>         0.0761
      3 C3         -5.2969    4.3240   -5.0211 C.3       1 <0>        -0.1502
      4 O1         -3.8146    2.5728   -4.2617 O.3       1 <0>        -0.3046
      5 C4         -2.8996    2.1570   -3.3455 C.ar      1 <0>         0.1072
      6 C5         -2.0288    3.0688   -2.7707 C.ar      1 <0>        -0.1735
      7 C6         -1.0990    2.6444   -1.8399 C.ar      1 <0>        -0.1083
      8 C7         -1.0357    1.3111   -1.4798 C.ar      1 <0>        -0.0803
      9 C8         -1.8981    0.3954   -2.0533 C.ar      1 <0>        -0.1645
     10 C9         -2.8356    0.8149   -2.9834 C.ar      1 <0>         0.1003
     11 O2         -3.6882   -0.0837   -3.5447 O.3       1 <0>        -0.3050
     12 C10        -3.5650   -1.4442   -3.1254 C.3       1 <0>         0.0226
     13 C11        -0.0203    0.8538   -0.4646 C.3       1 <0>        -0.0290
     14 H1         -0.1502   -0.2301   -0.3293 H         1 <0>         0.0838
     15 C12        -0.2357    1.5936    0.8544 C.3       1 <0>        -0.1041
     16 C13         0.7999    1.1510    1.8739 C.2       1 <0>         0.2684
     17 C14         2.0328    0.7859    1.4806 C.2       1 <0>        -0.3058
     18 C15         3.1553    0.3397    2.3858 C.3       1 <0>         0.3198
     19 H2          4.0342    0.9611    2.1592 H         1 <0>         0.0862
     20 N1          2.9193    0.5682    3.7955 N.pl3     1 <0>        -0.7791
     21 C16         1.8938   -0.0948    4.4676 C.ar      1 <0>         0.1820
     22 C17         2.1589   -1.0001    5.4825 C.ar      1 <0>        -0.1252
     23 C18         1.1094   -1.6692    6.0881 C.ar      1 <0>        -0.1104
     24 C19        -0.1931   -1.4410    5.6831 C.ar      1 <0>        -0.1278
     25 C20        -0.4626   -0.5237    4.6814 C.ar      1 <0>        -0.1176
     26 C21         0.5841    0.1629    4.0914 C.ar      1 <0>         0.1162
     27 N2          0.3778    1.1779    3.1644 N.pl3     1 <0>        -0.6972
     28 C22         3.3826   -1.1348    2.1729 C.2       1 <0>        -0.1547
     29 C23         2.5441   -1.9933    1.5714 C.2       1 <0>         0.0573
     30 N3          3.0887   -3.2485    1.5624 N.pl3     1 <0>        -0.6072
     31 H3          2.5371   -4.0841    1.1069 H         1 <0>         0.4373
     32 C24         4.3224   -3.2279    2.1735 C.ar      1 <0>         0.1077
     33 C25         4.5632   -1.9018    2.5776 C.ar      1 <0>        -0.0871
     34 C26         5.7553   -1.5773    3.2274 C.ar      1 <0>        -0.0659
     35 C27         6.6850   -2.5503    3.4651 C.ar      1 <0>        -0.1515
     36 C28         6.4537   -3.8591    3.0655 C.ar      1 <0>        -0.1024
     37 C29         5.2808   -4.2028    2.4292 C.ar      1 <0>        -0.1335
     38 C30         2.3734    0.7949    0.1073 C.2       1 <0>         0.3963
     39 O3          3.5000    0.4765   -0.2194 O.2       1 <0>        -0.4651
     40 C31         1.3934    1.1831   -0.9590 C.3       1 <0>        -0.1606
     41 H4         -1.8498    4.1351   -5.1691 H         1 <0>         0.0631
     42 H5         -2.9198    5.4655   -5.7273 H         1 <0>         0.0737
     43 H6         -3.0413    3.8392   -6.4804 H         1 <0>         0.0700
     44 H7         -3.7044    4.4610   -3.5321 H         1 <0>         0.0727
     45 H8         -6.0487    4.0335   -4.2725 H         1 <0>         0.0656
     46 H9         -5.4839    3.7801   -5.9588 H         1 <0>         0.0692
     47 H10        -5.3625    5.4064   -5.2057 H         1 <0>         0.0785
     48 H11        -2.0766    4.1110   -3.0497 H         1 <0>         0.1380
     49 H12        -0.4208    3.3560   -1.3926 H         1 <0>         0.1271
     50 H13        -1.8439   -0.6463   -1.7734 H         1 <0>         0.1337
     51 H14        -4.3086   -2.0593   -3.6532 H         1 <0>         0.1027
     52 H15        -3.7373   -1.5107   -2.0410 H         1 <0>         0.0551
     53 H16        -2.5542   -1.8098   -3.3592 H         1 <0>         0.0554
     54 H17        -0.1391    2.6765    0.6874 H         1 <0>         0.0933
     55 H18        -1.2414    1.3704    1.2400 H         1 <0>         0.0897
     56 H19         3.5538    1.2736    4.3521 H         1 <0>         0.4121
     57 H20         3.1756   -1.1823    5.7980 H         1 <0>         0.1217
     58 H21         1.3090   -2.3741    6.8816 H         1 <0>         0.1194
     59 H22        -1.0037   -1.9804    6.1504 H         1 <0>         0.1213
     60 H23        -1.4795   -0.3456    4.3640 H         1 <0>         0.1220
     61 H24        -0.1728    2.0509    3.5449 H         1 <0>         0.4249
     62 H25         1.5822   -1.7318    1.1557 H         1 <0>         0.1516
     63 H26         5.9420   -0.5610    3.5416 H         1 <0>         0.1159
     64 H27         7.6070   -2.2988    3.9683 H         1 <0>         0.1186
     65 H28         7.1981   -4.6170    3.2605 H         1 <0>         0.1215
     66 H29         5.1109   -5.2237    2.1206 H         1 <0>         0.1155
     67 H30         1.5997    0.6201   -1.8812 H         1 <0>         0.0960
     68 H31         1.4686    2.2614   -1.1631 H         1 <0>         0.1027
@<TRIPOS>BOND
     1    1    2 1
     2    1   41 1
     3    1   42 1
     4    1   43 1
     5    2    3 1
     6    2    4 1
     7    2   44 1
     8    3   45 1
     9    3   46 1
    10    3   47 1
    11    4    5 1
    12    5   10 ar
    13    5    6 ar
    14    6    7 ar
    15    6   48 1
    16    7    8 ar
    17    7   49 1
    18    8    9 ar
    19    8   13 1
    20    9   10 ar
    21    9   50 1
    22   10   11 1
    23   11   12 1
    24   12   51 1
    25   12   52 1
    26   12   53 1
    27   13   14 1
    28   13   40 1
    29   13   15 1
    30   15   16 1
    31   15   54 1
    32   15   55 1
    33   16   27 1
    34   16   17 2
    35   17   18 1
    36   17   38 1
    37   18   19 1
    38   18   20 1
    39   18   28 1
    40   20   21 1
    41   20   56 1
    42   21   26 ar
    43   21   22 ar
    44   22   23 ar
    45   22   57 1
    46   23   24 ar
    47   23   58 1
    48   24   25 ar
    49   24   59 1
    50   25   26 ar
    51   25   60 1
    52   26   27 1
    53   27   61 1
    54   28   33 1
    55   28   29 2
    56   29   30 1
    57   29   62 1
    58   30   31 1
    59   30   32 1
    60   32   37 ar
    61   32   33 ar
    62   33   34 ar
    63   34   35 ar
    64   34   63 1
    65   35   36 ar
    66   35   64 1
    67   36   37 ar
    68   36   65 1
    69   37   66 1
    70   38   39 2
    71   38   40 1
    72   40   67 1
    73   40   68 1
@<TRIPOS>MOLECULE
ZINC08919692
   52    55     0     0     0
SMALL
USER_CHARGES

@<TRIPOS>ATOM
      1 C1         -0.0187    1.5258    0.0104 C.3       1 <0>        -0.1574
      2 C2          0.0021   -0.0041    0.0020 C.3       1 <0>        -0.1162
      3 C3          0.7182   -0.4975   -1.2568 C.3       1 <0>        -0.0572
      4 C4         -0.0218    0.0093   -2.4963 C.3       1 <0>        -0.1500
      5 C5          2.1536    0.0321   -1.2676 C.3       1 <0>        -0.1470
      6 C6          0.7390   -2.0273   -1.2652 C.3       1 <0>        -0.0677
      7 H1          1.2658   -2.3902   -0.3827 H         1 <0>         0.0748
      8 C7          1.4498   -2.5238   -2.5274 C.3       1 <0>        -0.1188
      9 C8          1.6946   -4.0309   -2.4286 C.3       1 <0>        -0.0563
     10 C9          0.3791   -4.7189   -2.0921 C.2       1 <0>        -0.0325
     11 C10        -0.6608   -4.0249   -1.5756 C.2       1 <0>        -0.2135
     12 S1         -1.9430   -5.2282   -1.3558 S.3       1 <0>         0.2016
     13 C11        -1.1521   -6.5758   -1.9102 C.2       1 <0>         0.0929
     14 C12         0.1217   -6.1340   -2.2868 C.2       1 <0>        -0.2520
     15 C13         1.0595   -7.1423   -2.8444 C.2       1 <0>         0.4579
     16 N1          0.7397   -8.4018   -2.7189 N.2       1 <0>        -0.6313
     17 C14        -0.4400   -8.8885   -2.0148 C.3       1 <0>         0.4104
     18 H2         -0.7880   -9.8036   -2.4939 H         1 <0>         0.1252
     19 N2         -1.5289   -7.8948   -2.0272 N.pl3     1 <0>        -0.7078
     20 C15        -0.0695   -9.1920   -0.5860 C.ar      1 <0>        -0.1331
     21 C16        -0.9832   -8.9713    0.4270 C.ar      1 <0>        -0.0540
     22 C17        -0.6445   -9.2500    1.7387 C.ar      1 <0>        -0.0938
     23 C18         0.6100   -9.7500    2.0402 C.ar      1 <0>        -0.0642
     24 C19         1.5270   -9.9724    1.0303 C.ar      1 <0>        -0.0651
     25 C20         1.1864   -9.6984   -0.2876 C.ar      1 <0>         0.1652
     26 O1          2.0846   -9.9215   -1.2833 O.3       1 <0>        -0.4617
     27 Cl1         3.1009  -10.5997    1.4085 Cl        1 <0>        -0.0406
     28 Br1        -1.8974   -8.9466    3.1222 Br        1 <0>        -0.0293
     29 O2          2.2049   -6.7685   -3.4602 O.3       1 <0>        -0.4521
     30 C21        -0.7010   -2.5615   -1.2607 C.3       1 <0>        -0.0296
     31 H3          1.0039    1.9031    0.0027 H         1 <0>         0.0566
     32 H4         -0.5459    1.8868   -0.8726 H         1 <0>         0.0570
     33 H5         -0.5289    1.8773    0.9072 H         1 <0>         0.0512
     34 H6          0.5293   -0.3651    0.8851 H         1 <0>         0.0612
     35 H7         -1.0205   -0.3814    0.0098 H         1 <0>         0.0634
     36 H8         -0.0366    1.0992   -2.4903 H         1 <0>         0.0579
     37 H9          0.4884   -0.3422   -3.3931 H         1 <0>         0.0576
     38 H10        -1.0444   -0.3679   -2.4886 H         1 <0>         0.0576
     39 H11         2.6808   -0.3290   -0.3846 H         1 <0>         0.0542
     40 H12         2.6638   -0.3194   -2.1644 H         1 <0>         0.0585
     41 H13         2.1388    1.1220   -1.2617 H         1 <0>         0.0587
     42 H14         0.8292   -2.3142   -3.3986 H         1 <0>         0.0678
     43 H15         2.4044   -2.0081   -2.6320 H         1 <0>         0.0743
     44 H16         2.0686   -4.4038   -3.3821 H         1 <0>         0.0852
     45 H17         2.4236   -4.2321   -1.6436 H         1 <0>         0.0751
     46 H18        -2.4592   -8.1558   -2.1130 H         1 <0>         0.4177
     47 H19        -1.9627   -8.5804    0.1942 H         1 <0>         0.1396
     48 H20         0.8728   -9.9663    3.0651 H         1 <0>         0.1483
     49 H21         2.6535   -9.1639   -1.4769 H         1 <0>         0.3920
     50 H22         2.7372   -7.5082   -3.7835 H         1 <0>         0.4067
     51 H23        -1.1468   -2.4072   -0.2780 H         1 <0>         0.0781
     52 H24        -1.2883   -2.0406   -2.0169 H         1 <0>         0.0844
@<TRIPOS>BOND
     1    1    2 1
     2    1   31 1
     3    1   32 1
     4    1   33 1
     5    2    3 1
     6    2   34 1
     7    2   35 1
     8    3    4 1
     9    3    5 1
    10    3    6 1
    11    4   36 1
    12    4   37 1
    13    4   38 1
    14    5   39 1
    15    5   40 1
    16    5   41 1
    17    6    7 1
    18    6   30 1
    19    6    8 1
    20    8    9 1
    21    8   42 1
    22    8   43 1
    23    9   10 1
    24    9   44 1
    25    9   45 1
    26   10   14 1
    27   10   11 2
    28   11   12 1
    29   11   30 1
    30   12   13 1
    31   13   19 1
    32   13   14 2
    33   14   15 1
    34   15   16 2
    35   15   29 1
    36   16   17 1
    37   17   18 1
    38   17   19 1
    39   17   20 1
    40   19   46 1
    41   20   25 ar
    42   20   21 ar
    43   21   22 ar
    44   21   47 1
    45   22   23 ar
    46   22   28 1
    47   23   24 ar
    48   23   48 1
    49   24   25 ar
    50   24   27 1
    51   25   26 1
    52   26   49 1
    53   29   50 1
    54   30   51 1
    55   30   52 1
@<TRIPOS>MOLECULE
ZINC13739237
   51    56     0     0     0
SMALL
USER_CHARGES

@<TRIPOS>ATOM
      1 C1         -1.7509    1.0701    2.4636 C.3       1 <0>         0.0228
      2 N1         -1.4256   -0.2845    1.9973 N.3       1 <0>        -0.5373
      3 C2         -2.6369   -1.1146    1.9024 C.3       1 <0>         0.0470
      4 C3         -2.3071   -2.3608    1.0806 C.3       1 <0>        -0.0672
      5 C4         -1.0601   -3.0171    1.6180 C.ar      1 <0>         0.2066
      6 C5         -0.1906   -2.3436    2.4494 C.ar      1 <0>        -0.1178
      7 C6          0.9576   -2.9832    2.9221 C.ar      1 <0>         0.1060
      8 C7          1.2092   -4.3353    2.5361 C.ar      1 <0>        -0.1754
      9 C8          2.3218   -5.1928    2.8998 C.2       1 <0>         0.3203
     10 C9          2.3484   -6.4786    2.3989 C.2       1 <0>        -0.3506
     11 S1          0.8639   -6.5673    1.4169 S.3       1 <0>         0.1163
     12 C10         0.2480   -4.9233    1.6855 C.ar      1 <0>         0.1472
     13 N2         -0.8145   -4.2723    1.2688 N.ar      1 <0>        -0.4509
     14 C11         3.3208   -7.4841    2.6129 C.2       1 <0>         0.6205
     15 O1          4.2866   -7.2568    3.3193 O.2       1 <0>        -0.4815
     16 N3          3.1782   -8.6934    2.0351 N.am      1 <0>        -0.6143
     17 C12         4.1290   -9.6766    2.2444 C.2       1 <0>         0.3808
     18 N4          5.2226   -9.6237    2.9691 N.2       1 <0>        -0.5069
     19 C13         6.0681  -10.6707    3.0845 C.ar      1 <0>         0.1039
     20 C14         7.2698  -10.7448    3.8263 C.ar      1 <0>        -0.0670
     21 C15         8.0167  -11.8936    3.8362 C.ar      1 <0>        -0.1056
     22 C16         7.6260  -13.0187    3.1244 C.ar      1 <0>        -0.1031
     23 C17         6.4561  -12.9816    2.3880 C.ar      1 <0>        -0.0608
     24 C18         5.7013  -11.8354    2.3725 C.ar      1 <0>        -0.1503
     25 S2          4.1769  -11.3442    1.6033 S.3       1 <0>         0.0038
     26 N5          3.3341   -4.7314    3.7302 N.pl3     1 <0>        -0.8195
     27 C19         1.8973   -2.2723    3.8069 C.2       1 <0>        -0.1630
     28 C20         2.7481   -1.2372    3.5116 C.2       1 <0>        -0.1164
     29 C21         3.5410   -0.7273    4.5131 C.2       1 <0>        -0.1623
     30 C22         3.4586   -1.2616    5.7605 C.2       1 <0>        -0.1595
     31 S3          2.2196   -2.5285    5.5442 S.3       1 <0>         0.0862
     32 C23        -0.4420   -0.9213    2.8785 C.3       1 <0>         0.0992
     33 H1         -0.8460    1.6777    2.4743 H         1 <0>         0.0722
     34 H2         -2.4825    1.5195    1.7921 H         1 <0>         0.0767
     35 H3         -2.1655    1.0180    3.4703 H         1 <0>         0.0304
     36 H4         -2.9583   -1.4091    2.9014 H         1 <0>         0.0457
     37 H5         -3.4297   -0.5509    1.4107 H         1 <0>         0.0945
     38 H6         -3.1390   -3.0628    1.1382 H         1 <0>         0.1010
     39 H7         -2.1469   -2.0765    0.0406 H         1 <0>         0.1051
     40 H8          2.4090   -8.8744    1.4726 H         1 <0>         0.4278
     41 H9          7.6028   -9.8864    4.3908 H         1 <0>         0.1334
     42 H10         8.9306  -11.9239    4.4109 H         1 <0>         0.1346
     43 H11         8.2295  -13.9141    3.1449 H         1 <0>         0.1392
     44 H12         6.1386  -13.8490    1.8283 H         1 <0>         0.1340
     45 H13         3.4565   -3.7782    3.8623 H         1 <0>         0.3993
     46 H14         3.9191   -5.3621    4.1784 H         1 <0>         0.4211
     47 H15         2.7946   -0.8309    2.5120 H         1 <0>         0.1429
     48 H16         4.2208    0.0872    4.3111 H         1 <0>         0.1448
     49 H17         4.0007   -0.9876    6.6535 H         1 <0>         0.1944
     50 H18         0.4930   -0.3626    2.8370 H         1 <0>         0.0963
     51 H19        -0.8186   -0.9156    3.9013 H         1 <0>         0.0554
@<TRIPOS>BOND
     1    1    2 1
     2    1   33 1
     3    1   34 1
     4    1   35 1
     5    2   32 1
     6    2    3 1
     7    3    4 1
     8    3   36 1
     9    3   37 1
    10    4    5 1
    11    4   38 1
    12    4   39 1
    13    5   13 ar
    14    5    6 ar
    15    6    7 ar
    16    6   32 1
    17    7    8 ar
    18    7   27 1
    19    8   12 ar
    20    8    9 1
    21    9   10 2
    22    9   26 1
    23   10   11 1
    24   10   14 1
    25   11   12 1
    26   12   13 ar
    27   14   15 2
    28   14   16 am
    29   16   17 1
    30   16   40 1
    31   17   25 1
    32   17   18 2
    33   18   19 1
    34   19   24 ar
    35   19   20 ar
    36   20   21 ar
    37   20   41 1
    38   21   22 ar
    39   21   42 1
    40   22   23 ar
    41   22   43 1
    42   23   24 ar
    43   23   44 1
    44   24   25 1
    45   26   45 1
    46   26   46 1
    47   27   31 1
    48   27   28 2
    49   28   29 1
    50   28   47 1
    51   29   30 2
    52   29   48 1
    53   30   31 1
    54   30   49 1
    55   32   50 1
    56   32   51 1
@<TRIPOS>MOLECULE
ZINC12560577
   53    56     0     0     0
SMALL
USER_CHARGES
4-pyrrolidin-1-yl-3-(tetralin-6-ylsulfonylamino)benzamide
@<TRIPOS>ATOM
      1 C1          2.4496    1.1741   -0.2483 C.ar      1 <0>        -0.0737
      2 C2          2.4325   -0.2020   -0.1792 C.ar      1 <0>        -0.1564
      3 C3          1.2275   -0.8897   -0.2536 C.ar      1 <0>         0.1125
      4 C4          0.0275   -0.1874   -0.3984 C.ar      1 <0>         0.1407
      5 C5          0.0399    1.1923   -0.4681 C.ar      1 <0>        -0.0974
      6 C6          1.2541    1.8821   -0.3935 C.ar      1 <0>        -0.1316
      7 C7          1.2724    3.3554   -0.4680 C.2       1 <0>         0.5622
      8 O1          0.2313    3.9708   -0.5944 O.2       1 <0>        -0.5285
      9 N1          2.4432    4.0192   -0.3959 N.am      1 <0>        -0.8516
     10 N2         -1.1863   -0.8819   -0.4723 N.pl3     1 <0>        -1.0470
     11 S1         -2.4121   -0.3077   -1.4263 S.o2      1 <0>         2.6853
     12 O2         -3.4474   -1.2802   -1.3864 O.2       1 <0>        -0.9484
     13 O3         -2.6227    1.0453   -1.0464 O.2       1 <0>        -0.9408
     14 C8         -1.8126   -0.2780   -3.0830 C.ar      1 <0>        -0.6738
     15 C9         -1.1856    0.8524   -3.5737 C.ar      1 <0>        -0.0191
     16 C10        -0.7159    0.8666   -4.8705 C.ar      1 <0>        -0.1390
     17 C11        -0.8781   -0.2415   -5.6923 C.ar      1 <0>        -0.0155
     18 C12        -1.5045   -1.3662   -5.2044 C.ar      1 <0>        -0.0971
     19 C13        -1.9723   -1.3803   -3.8965 C.ar      1 <0>        -0.0111
     20 C14        -1.7061   -2.6066   -6.0349 C.3       1 <0>        -0.0830
     21 C15        -1.5421   -2.2911   -7.5202 C.3       1 <0>        -0.1219
     22 C16        -0.2162   -1.5454   -7.7126 C.3       1 <0>        -0.1212
     23 C17        -0.3540   -0.1524   -7.1017 C.3       1 <0>        -0.0910
     24 N3          1.2152   -2.2813   -0.1832 N.pl3     1 <0>        -0.4696
     25 C18         2.5963   -2.8229   -0.1108 C.3       1 <0>         0.0268
     26 C19         2.3905   -4.2410    0.4783 C.3       1 <0>        -0.1245
     27 C20         1.2524   -4.0280    1.5027 C.3       1 <0>        -0.1307
     28 C21         0.5356   -2.7438    1.0463 C.3       1 <0>         0.0320
     29 H1          3.3879    1.7057   -0.1905 H         1 <0>         0.1317
     30 H2          3.3580   -0.7473   -0.0672 H         1 <0>         0.1437
     31 H3         -0.8856    1.7367   -0.5845 H         1 <0>         0.1789
     32 H4          3.2737    3.5283   -0.2951 H         1 <0>         0.4001
     33 H5          2.4552    4.9879   -0.4449 H         1 <0>         0.4070
     34 H6         -1.3091   -1.6993    0.0353 H         1 <0>         0.4250
     35 H7         -1.0604    1.7197   -2.9425 H         1 <0>         0.1402
     36 H8         -0.2213    1.7479   -5.2513 H         1 <0>         0.1319
     37 H9         -2.4648   -2.2619   -3.5135 H         1 <0>         0.1382
     38 H10        -0.9715   -3.3574   -5.7437 H         1 <0>         0.0797
     39 H11        -2.7081   -2.9979   -5.8591 H         1 <0>         0.0790
     40 H12        -1.5283   -3.2183   -8.0932 H         1 <0>         0.0719
     41 H13        -2.3684   -1.6644   -7.8558 H         1 <0>         0.0674
     42 H14         0.5860   -2.0879   -7.2124 H         1 <0>         0.0672
     43 H15         0.0060   -1.4601   -8.7763 H         1 <0>         0.0719
     44 H16         0.6214    0.3341   -7.0923 H         1 <0>         0.0814
     45 H17        -1.0437    0.4381   -7.7049 H         1 <0>         0.0851
     46 H18         3.0398   -2.8799   -1.1048 H         1 <0>         0.0920
     47 H19         3.2130   -2.2165    0.5526 H         1 <0>         0.0656
     48 H20         3.2967   -4.5876    0.9751 H         1 <0>         0.0792
     49 H21         2.0838   -4.9408   -0.2990 H         1 <0>         0.0788
     50 H22         1.6639   -3.8964    2.5035 H         1 <0>         0.0744
     51 H23         0.5637   -4.8727    1.4841 H         1 <0>         0.0796
     52 H24         0.6108   -1.9811    1.8214 H         1 <0>         0.0604
     53 H25        -0.5124   -2.9554    0.8342 H         1 <0>         0.0833
@<TRIPOS>BOND
     1    1    6 ar
     2    1    2 ar
     3    1   29 1
     4    2    3 ar
     5    2   30 1
     6    3    4 ar
     7    3   24 1
     8    4    5 ar
     9    4   10 1
    10    5    6 ar
    11    5   31 1
    12    6    7 1
    13    7    8 2
    14    7    9 am
    15    9   32 1
    16    9   33 1
    17   10   11 1
    18   10   34 1
    19   11   12 2
    20   11   13 2
    21   11   14 1
    22   14   19 ar
    23   14   15 ar
    24   15   16 ar
    25   15   35 1
    26   16   17 ar
    27   16   36 1
    28   17   23 1
    29   17   18 ar
    30   18   19 ar
    31   18   20 1
    32   19   37 1
    33   20   21 1
    34   20   38 1
    35   20   39 1
    36   21   22 1
    37   21   40 1
    38   21   41 1
    39   22   23 1
    40   22   42 1
    41   22   43 1
    42   23   44 1
    43   23   45 1
    44   24   28 1
    45   24   25 1
    46   25   26 1
    47   25   46 1
    48   25   47 1
    49   26   27 1
    50   26   48 1
    51   26   49 1
    52   27   28 1
    53   27   50 1
    54   27   51 1
    55   28   52 1
    56   28   53 1
@<TRIPOS>MOLECULE
ZINC39324170
   39    42     0     0     0
SMALL
USER_CHARGES

@<TRIPOS>ATOM
      1 C1         -0.0184    1.5028    0.0103 C.3       1 <0>        -0.0884
      2 C2          0.0021   -0.0041    0.0020 C.2       1 <0>         0.0780
      3 C3         -1.0762   -0.8074    0.0026 C.2       1 <0>        -0.2853
      4 C4         -0.6253   -2.1467   -0.0073 C.2       1 <0>         0.3360
      5 N1          0.6832   -2.1300   -0.0135 N.2       1 <0>        -0.3529
      6 O1          1.0998   -0.7764   -0.0131 O.3       1 <0>        -0.0699
      7 N2         -1.4313   -3.2838   -0.0095 N.am      1 <0>        -0.6305
      8 C5         -2.7733   -3.1586   -0.0019 C.2       1 <0>         0.6374
      9 O2         -3.2816   -2.0519    0.0069 O.2       1 <0>        -0.5251
     10 C6         -3.5922   -4.3139   -0.0042 C.2       1 <0>        -0.3604
     11 C7         -4.9688   -4.3854   -0.0031 C.2       1 <0>         0.3225
     12 C8         -5.5918   -5.6991   -0.0060 C.ar      1 <0>        -0.1950
     13 C9         -6.9737   -6.0218   -0.0051 C.ar      1 <0>        -0.0010
     14 C10        -7.3515   -7.3300   -0.0078 C.ar      1 <0>        -0.1753
     15 C11        -6.3894   -8.3451   -0.0113 C.ar      1 <0>         0.2313
     16 N3         -5.0973   -8.0407   -0.0117 N.ar      1 <0>        -0.4387
     17 C12        -4.6920   -6.7901   -0.0096 C.ar      1 <0>         0.1455
     18 S1         -3.0902   -6.0236   -0.0170 S.3       1 <0>         0.1263
     19 C13        -6.8136   -9.7646   -0.0141 C.ar      1 <0>        -0.1117
     20 C14        -8.1698  -10.0897   -0.0191 C.ar      1 <0>        -0.0318
     21 C15        -8.5601  -11.4122   -0.0222 C.ar      1 <0>        -0.1689
     22 C16        -7.6075  -12.4196   -0.0200 C.ar      1 <0>         0.1549
     23 C17        -6.2590  -12.1043   -0.0145 C.ar      1 <0>        -0.2019
     24 C18        -5.8567  -10.7819   -0.0177 C.ar      1 <0>         0.1812
     25 F1         -4.5412  -10.4743   -0.0185 F         1 <0>        -0.1012
     26 F2         -7.9962  -13.7134   -0.0226 F         1 <0>        -0.1239
     27 N4         -5.7410   -3.2321    0.0011 N.pl3     1 <0>        -0.8180
     28 H1          1.0042    1.8801    0.0026 H         1 <0>         0.0859
     29 H2         -0.5455    1.8639   -0.8728 H         1 <0>         0.0969
     30 H3         -0.5286    1.8543    0.9071 H         1 <0>         0.0969
     31 H4         -2.1070   -0.4853    0.0094 H         1 <0>         0.1829
     32 H5         -1.0265   -4.1652   -0.0166 H         1 <0>         0.4213
     33 H6         -7.7174   -5.2387   -0.0021 H         1 <0>         0.1442
     34 H7         -8.4009   -7.5854   -0.0068 H         1 <0>         0.1521
     35 H8         -8.9135   -9.3065   -0.0202 H         1 <0>         0.1516
     36 H9         -9.6103  -11.6639   -0.0261 H         1 <0>         0.1517
     37 H10        -5.5208  -12.8926   -0.0124 H         1 <0>         0.1562
     38 H11        -5.3128   -2.3617    0.0029 H         1 <0>         0.4249
     39 H12        -6.7089   -3.2964    0.0022 H         1 <0>         0.4023
@<TRIPOS>BOND
     1    1    2 1
     2    1   28 1
     3    1   29 1
     4    1   30 1
     5    2    6 1
     6    2    3 2
     7    3    4 1
     8    3   31 1
     9    4    5 2
    10    4    7 1
    11    5    6 1
    12    7    8 am
    13    7   32 1
    14    8    9 2
    15    8   10 1
    16   10   18 1
    17   10   11 2
    18   11   12 1
    19   11   27 1
    20   12   17 ar
    21   12   13 ar
    22   13   14 ar
    23   13   33 1
    24   14   15 ar
    25   14   34 1
    26   15   16 ar
    27   15   19 1
    28   16   17 ar
    29   17   18 1
    30   19   24 ar
    31   19   20 ar
    32   20   21 ar
    33   20   35 1
    34   21   22 ar
    35   21   36 1
    36   22   23 ar
    37   22   26 1
    38   23   24 ar
    39   23   37 1
    40   24   25 1
    41   27   38 1
    42   27   39 1
@<TRIPOS>MOLECULE
ZINC53607009
   48    51     0     0     0
SMALL
USER_CHARGES

@<TRIPOS>ATOM
      1 C1         -2.5359   -0.9267   -0.7759 C.3       1 <0>        -0.1078
      2 C2         -1.0995   -1.0609   -0.3400 C.2       1 <0>         0.1538
      3 C3          0.0011   -0.8890   -1.1584 C.2       1 <0>        -0.2567
      4 C4          1.1849   -1.1160   -0.3068 C.ar      1 <0>        -0.0545
      5 C5          2.5579   -1.0905   -0.5337 C.ar      1 <0>        -0.0817
      6 C6          3.4259   -1.3552    0.5038 C.ar      1 <0>        -0.1283
      7 C7          2.9358   -1.6458    1.7683 C.ar      1 <0>        -0.1015
      8 C8          1.5785   -1.6743    2.0060 C.ar      1 <0>        -0.1179
      9 C9          0.6865   -1.4098    0.9718 C.ar      1 <0>         0.0871
     10 N1         -0.6920   -1.3606    0.9065 N.pl3     1 <0>        -0.5690
     11 H1         -1.2855   -1.5225    1.6565 H         1 <0>         0.4214
     12 C10        -0.0061   -0.5506   -2.5807 C.2       1 <0>         0.4540
     13 O1         -0.1135   -1.4290   -3.4139 O.2       1 <0>        -0.4017
     14 C11         0.1183    0.8728   -3.0093 C.2       1 <0>         0.4771
     15 O2          0.3217    1.7396   -2.1842 O.2       1 <0>        -0.4947
     16 N2          0.0049    1.1965   -4.3127 N.am      1 <0>        -0.5006
     17 N3          0.1217    2.5333   -4.7153 N.am      1 <0>        -0.5248
     18 C12         0.0083    2.8570   -6.0187 C.2       1 <0>         0.5150
     19 O3         -0.1949    1.9910   -6.8431 O.2       1 <0>        -0.5193
     20 C13         0.1340    4.2949   -6.4517 C.3       1 <0>        -0.0903
     21 C14        -0.0306    4.3855   -7.9470 C.ar      1 <0>        -0.0691
     22 C15         1.0896    4.2742   -8.7688 C.ar      1 <0>        -0.1001
     23 C16         0.9757    4.3520  -10.1228 C.ar      1 <0>        -0.1034
     24 C17        -0.2888    4.5468  -10.7042 C.ar      1 <0>        -0.0485
     25 C18        -0.4459    4.6317  -12.0982 C.ar      1 <0>        -0.1072
     26 C19        -1.6862    4.8204  -12.6258 C.ar      1 <0>        -0.1151
     27 C20        -2.8063    4.9314  -11.8039 C.ar      1 <0>        -0.1169
     28 C21        -2.6924    4.8541  -10.4499 C.ar      1 <0>        -0.1051
     29 C22        -1.4278    4.6596   -9.8685 C.ar      1 <0>        -0.0506
     30 C23        -1.2714    4.5692   -8.4748 C.ar      1 <0>        -0.0864
     31 H2         -2.8852    0.0850   -0.5695 H         1 <0>         0.0902
     32 H3         -2.6113   -1.1262   -1.8448 H         1 <0>         0.0868
     33 H4         -3.1500   -1.6418   -0.2285 H         1 <0>         0.0834
     34 H5          2.9412   -0.8647   -1.5178 H         1 <0>         0.1205
     35 H6          4.4919   -1.3366    0.3313 H         1 <0>         0.1278
     36 H7          3.6243   -1.8521    2.5744 H         1 <0>         0.1300
     37 H8          1.2077   -1.9021    2.9944 H         1 <0>         0.1246
     38 H9         -0.1576    0.5039   -4.9721 H         1 <0>         0.4409
     39 H10         0.2843    3.2259   -4.0559 H         1 <0>         0.4340
     40 H11        -0.6384    4.8899   -5.9645 H         1 <0>         0.1127
     41 H12         1.1164    4.6745   -6.1707 H         1 <0>         0.1135
     42 H13         2.0625    4.1244   -8.3246 H         1 <0>         0.1227
     43 H14         1.8527    4.2647  -10.7471 H         1 <0>         0.1288
     44 H15         0.4131    4.5478  -12.7474 H         1 <0>         0.1274
     45 H16        -1.8041    4.8856  -13.6973 H         1 <0>         0.1235
     46 H17        -3.7793    5.0813  -12.2481 H         1 <0>         0.1235
     47 H18        -3.5692    4.9422   -9.8255 H         1 <0>         0.1267
     48 H19        -2.1310    4.6489   -7.8258 H         1 <0>         0.1261
@<TRIPOS>BOND
     1    1    2 1
     2    1   31 1
     3    1   32 1
     4    1   33 1
     5    2   10 1
     6    2    3 2
     7    3    4 1
     8    3   12 1
     9    4    9 ar
    10    4    5 ar
    11    5    6 ar
    12    5   34 1
    13    6    7 ar
    14    6   35 1
    15    7    8 ar
    16    7   36 1
    17    8    9 ar
    18    8   37 1
    19    9   10 1
    20   10   11 1
    21   12   13 2
    22   12   14 1
    23   14   15 2
    24   14   16 am
    25   16   17 1
    26   16   38 1
    27   17   18 am
    28   17   39 1
    29   18   19 2
    30   18   20 1
    31   20   21 1
    32   20   40 1
    33   20   41 1
    34   21   30 ar
    35   21   22 ar
    36   22   23 ar
    37   22   42 1
    38   23   24 ar
    39   23   43 1
    40   24   29 ar
    41   24   25 ar
    42   25   26 ar
    43   25   44 1
    44   26   27 ar
    45   26   45 1
    46   27   28 ar
    47   27   46 1
    48   28   29 ar
    49   28   47 1
    50   29   30 ar
    51   30   48 1
@<TRIPOS>MOLECULE
ZINC61165597
   50    52     0     0     0
SMALL
USER_CHARGES

@<TRIPOS>ATOM
      1 C1          0.1361    1.3898   -0.0649 C.3       1 <0>        -0.1163
      2 C2          0.0861   -0.1163   -0.0681 C.ar      1 <0>        -0.0766
      3 C3          0.7589   -0.8269   -1.0451 C.ar      1 <0>        -0.1185
      4 C4          0.7151   -2.2073   -1.0508 C.ar      1 <0>        -0.0828
      5 C5         -0.0052   -2.8817   -0.0736 C.ar      1 <0>         0.1214
      6 C6         -0.6794   -2.1652    0.9065 C.ar      1 <0>        -0.0600
      7 C7         -0.6277   -0.7850    0.9094 C.ar      1 <0>        -0.1183
      8 C8         -1.4627   -2.8929    1.9685 C.3       1 <0>        -0.1070
      9 N1         -0.0520   -4.2802   -0.0768 N.am      1 <0>        -0.6697
     10 C9          0.3451   -4.9702    1.0106 C.2       1 <0>         0.5090
     11 O1          0.6589   -4.3796    2.0224 O.2       1 <0>        -0.5146
     12 C10         0.3992   -6.4757    0.9694 C.3       1 <0>         0.1225
     13 N2          0.8581   -6.9834    2.2648 N.am      1 <0>        -0.7340
     14 C11         0.9844   -8.3107    2.4619 C.2       1 <0>         0.7129
     15 O2          0.7175   -9.0867    1.5647 O.2       1 <0>        -0.5867
     16 N3          1.4065   -8.7779    3.6536 N.am      1 <0>        -0.7428
     17 C12         1.5438  -10.2206    3.8678 C.3       1 <0>         0.2184
     18 C13         2.0278  -10.4761    5.2719 C.2       1 <0>         0.0073
     19 C14         1.2338  -10.6584    6.3358 C.2       1 <0>        -0.1717
     20 C15         2.1268  -10.8722    7.4809 C.ar      1 <0>        -0.1378
     21 C16         1.9291  -11.1128    8.8398 C.ar      1 <0>        -0.0670
     22 C17         3.0084  -11.2707    9.6643 C.ar      1 <0>        -0.1356
     23 C18         4.2973  -11.1924    9.1569 C.ar      1 <0>        -0.0878
     24 C19         4.5124  -10.9552    7.8161 C.ar      1 <0>        -0.1086
     25 C20         3.4295  -10.7922    6.9610 C.ar      1 <0>         0.0589
     26 O3          3.3189  -10.5599    5.6377 O.3       1 <0>        -0.1876
     27 C21         1.4477   -2.9809   -2.1166 C.3       1 <0>        -0.1124
     28 H1          0.9871    1.7239    0.5286 H         1 <0>         0.0721
     29 H2          0.2418    1.7520   -1.0875 H         1 <0>         0.0676
     30 H3         -0.7845    1.7830    0.3665 H         1 <0>         0.0676
     31 H4          1.3189   -0.3019   -1.8048 H         1 <0>         0.1264
     32 H5         -1.1484   -0.2273    1.6738 H         1 <0>         0.1255
     33 H6         -0.8538   -2.9889    2.8674 H         1 <0>         0.0841
     34 H7         -2.3679   -2.3319    2.2009 H         1 <0>         0.0619
     35 H8         -1.7331   -3.8844    1.6052 H         1 <0>         0.0558
     36 H9         -0.3703   -4.7530   -0.8617 H         1 <0>         0.4114
     37 H10        -0.5946   -6.8693    0.7563 H         1 <0>         0.1020
     38 H11         1.0909   -6.7932    0.1891 H         1 <0>         0.1029
     39 H12         1.0710   -6.3644    2.9805 H         1 <0>         0.4095
     40 H13         1.6194   -8.1588    4.3693 H         1 <0>         0.4024
     41 H14         0.5771  -10.7030    3.7234 H         1 <0>         0.1053
     42 H15         2.2625  -10.6268    3.1561 H         1 <0>         0.0905
     43 H16         0.1540  -10.6498    6.3482 H         1 <0>         0.1621
     44 H17         0.9276  -11.1739    9.2396 H         1 <0>         0.1292
     45 H18         2.8566  -11.4572   10.7172 H         1 <0>         0.1316
     46 H19         5.1410  -11.3183    9.8194 H         1 <0>         0.1373
     47 H20         5.5198  -10.8957    7.4315 H         1 <0>         0.1338
     48 H21         2.4610   -3.1964   -1.7774 H         1 <0>         0.0722
     49 H22         0.9233   -3.9163   -2.3119 H         1 <0>         0.0635
     50 H23         1.4889   -2.3895   -3.0313 H         1 <0>         0.0708
@<TRIPOS>BOND
     1    1    2 1
     2    1   28 1
     3    1   29 1
     4    1   30 1
     5    2    7 ar
     6    2    3 ar
     7    3    4 ar
     8    3   31 1
     9    4    5 ar
    10    4   27 1
    11    5    6 ar
    12    5    9 1
    13    6    7 ar
    14    6    8 1
    15    7   32 1
    16    8   33 1
    17    8   34 1
    18    8   35 1
    19    9   10 am
    20    9   36 1
    21   10   11 2
    22   10   12 1
    23   12   13 1
    24   12   37 1
    25   12   38 1
    26   13   14 am
    27   13   39 1
    28   14   15 2
    29   14   16 am
    30   16   17 1
    31   16   40 1
    32   17   18 1
    33   17   41 1
    34   17   42 1
    35   18   26 1
    36   18   19 2
    37   19   20 1
    38   19   43 1
    39   20   25 ar
    40   20   21 ar
    41   21   22 ar
    42   21   44 1
    43   22   23 ar
    44   22   45 1
    45   23   24 ar
    46   23   46 1
    47   24   25 ar
    48   24   47 1
    49   25   26 1
    50   27   48 1
    51   27   49 1
    52   27   50 1
@<TRIPOS>MOLECULE
ZINC66953084
   49    52     0     0     0
SMALL
USER_CHARGES

@<TRIPOS>ATOM
      1 C1          1.8268   -3.8638    2.5860 C.ar      1 <0>        -0.1083
      2 C2          1.8544   -2.6334    3.2161 C.ar      1 <0>        -0.1229
      3 C3          2.2759   -1.5181    2.5224 C.ar      1 <0>        -0.1129
      4 C4          2.6746   -1.6209    1.1957 C.ar      1 <0>        -0.1110
      5 C5          2.6519   -2.8468    0.5700 C.ar      1 <0>        -0.0530
      6 C6          2.2236   -3.9681    1.2691 C.ar      1 <0>        -0.1245
      7 C7          3.0851   -3.0350   -0.8604 C.3       1 <0>        -0.0864
      8 C8          3.1058   -1.6968   -1.5961 C.3       1 <0>        -0.1174
      9 C9          3.9151   -0.6977   -0.7608 C.3       1 <0>        -0.1053
     10 C10         3.1156   -0.3617    0.4964 C.3       1 <0>         0.1712
     11 C11         3.9890    0.4625    1.4444 C.3       1 <0>         0.1172
     12 N1          4.5105    1.6331    0.7344 N.am      1 <0>        -0.7310
     13 C12         5.3924    2.4517    1.3414 C.2       1 <0>         0.6982
     14 O1          5.7553    2.2188    2.4783 O.2       1 <0>        -0.5639
     15 N2          5.8722    3.5286    0.6882 N.am      1 <0>        -0.6677
     16 C13         6.8397    4.3420    1.2938 C.ar      1 <0>         0.1336
     17 C14         6.8342    5.7179    1.0723 C.ar      1 <0>         0.1535
     18 C15         7.7945    6.5176    1.6745 C.ar      1 <0>        -0.1336
     19 C16         8.7541    5.9503    2.4914 C.ar      1 <0>        -0.0796
     20 C17         8.7614    4.5852    2.7120 C.ar      1 <0>        -0.1445
     21 C18         7.8035    3.7800    2.1210 C.ar      1 <0>         0.1227
     22 F1          7.8098    2.4475    2.3433 F         1 <0>        -0.1054
     23 N3          5.8605    6.2926    0.2423 N.pl3     1 <0>        -0.3191
     24 C19         5.8123    7.5853   -0.1506 C.2       1 <0>         0.0599
     25 C20         4.7240    7.7351   -0.9412 C.2       1 <0>        -0.2579
     26 C21         4.0856    6.4939   -1.0351 C.2       1 <0>         0.0651
     27 N4          4.7691    5.6274   -0.3312 N.2       1 <0>        -0.3053
     28 O2          1.9646    0.4031    0.1326 O.3       1 <0>        -0.5460
     29 H1          1.4997   -4.7410    3.1245 H         1 <0>         0.1244
     30 H2          1.5467   -2.5457    4.2476 H         1 <0>         0.1246
     31 H3          2.2958   -0.5571    3.0148 H         1 <0>         0.1228
     32 H4          2.2009   -4.9294    0.7775 H         1 <0>         0.1237
     33 H5          4.0840   -3.4709   -0.8790 H         1 <0>         0.0789
     34 H6          2.3900   -3.7094   -1.3606 H         1 <0>         0.0781
     35 H7          3.5731   -1.8220   -2.5728 H         1 <0>         0.0713
     36 H8          2.0867   -1.3305   -1.7205 H         1 <0>         0.0766
     37 H9          4.8701   -1.1422   -0.4807 H         1 <0>         0.0815
     38 H10         4.0877    0.2097   -1.3396 H         1 <0>         0.0749
     39 H11         3.3923    0.7900    2.2958 H         1 <0>         0.0707
     40 H12         4.8199   -0.1487    1.7967 H         1 <0>         0.0818
     41 H13         4.2210    1.8189   -0.1725 H         1 <0>         0.4017
     42 H14         5.5478    3.7407   -0.2010 H         1 <0>         0.4182
     43 H15         7.7925    7.5841    1.5046 H         1 <0>         0.1413
     44 H16         9.5008    6.5751    2.9588 H         1 <0>         0.1466
     45 H17         9.5139    4.1468    3.3508 H         1 <0>         0.1463
     46 H18         6.5157    8.3594    0.1183 H         1 <0>         0.1815
     47 H19         4.4048    8.6512   -1.4159 H         1 <0>         0.1576
     48 H20         3.1861    6.2854   -1.5954 H         1 <0>         0.1924
     49 H21         1.4155    0.6685    0.8829 H         1 <0>         0.3791
@<TRIPOS>BOND
     1    1    6 ar
     2    1    2 ar
     3    1   29 1
     4    2    3 ar
     5    2   30 1
     6    3    4 ar
     7    3   31 1
     8    4   10 1
     9    4    5 ar
    10    5    6 ar
    11    5    7 1
    12    6   32 1
    13    7    8 1
    14    7   33 1
    15    7   34 1
    16    8    9 1
    17    8   35 1
    18    8   36 1
    19    9   10 1
    20    9   37 1
    21    9   38 1
    22   10   11 1
    23   10   28 1
    24   11   12 1
    25   11   39 1
    26   11   40 1
    27   12   13 am
    28   12   41 1
    29   13   14 2
    30   13   15 am
    31   15   16 1
    32   15   42 1
    33   16   21 ar
    34   16   17 ar
    35   17   18 ar
    36   17   23 1
    37   18   19 ar
    38   18   43 1
    39   19   20 ar
    40   19   44 1
    41   20   21 ar
    42   20   45 1
    43   21   22 1
    44   23   27 1
    45   23   24 1
    46   24   25 2
    47   24   46 1
    48   25   26 1
    49   25   47 1
    50   26   27 2
    51   26   48 1
    52   28   49 1
@<TRIPOS>MOLECULE
ZINC05556312
   44    47     0     0     0
SMALL
USER_CHARGES
7-[(4-fluorophenyl)-[(3-hydroxy-2-pyridyl)amino]methyl]quinolin-8-ol
@<TRIPOS>ATOM
      1 C1          1.7570   11.9140    2.2361 C.ar      1 <0>        -0.1559
      2 C2          0.6416   11.2097    1.8812 C.ar      1 <0>        -0.0594
      3 C3          0.8083    9.8908    1.4190 C.ar      1 <0>        -0.0859
      4 C4         -0.2918    9.1056    1.0367 C.ar      1 <0>        -0.0843
      5 C5         -0.0916    7.8353    0.5889 C.ar      1 <0>        -0.1035
      6 C6          1.1901    7.2961    0.5144 C.ar      1 <0>        -0.1504
      7 C7          2.2838    8.0288    0.8776 C.ar      1 <0>         0.1619
      8 C8          2.1155    9.3508    1.3408 C.ar      1 <0>         0.1029
      9 N1          3.1648   10.0932    1.7040 N.ar      1 <0>        -0.4608
     10 C9          3.0139   11.3222    2.1348 C.ar      1 <0>         0.1419
     11 O1          3.5270    7.4879    0.7928 O.3       1 <0>        -0.4828
     12 C10         1.3736    5.8845    0.0196 C.3       1 <0>         0.2274
     13 H1          2.1807    5.4069    0.5750 H         1 <0>         0.1101
     14 C11         1.7180    5.9072   -1.4473 C.ar      1 <0>        -0.1233
     15 C12         0.7185    6.0652   -2.3891 C.ar      1 <0>        -0.0777
     16 C13         1.0337    6.0910   -3.7344 C.ar      1 <0>        -0.1433
     17 C14         2.3501    5.9479   -4.1393 C.ar      1 <0>         0.1232
     18 C15         3.3497    5.7844   -3.1953 C.ar      1 <0>        -0.1434
     19 C16         3.0327    5.7642   -1.8503 C.ar      1 <0>        -0.0746
     20 F1          2.6589    5.9682   -5.4544 F         1 <0>        -0.1264
     21 N2          0.1322    5.1323    0.2182 N.pl3     1 <0>        -0.6867
     22 H2         -0.4982    5.0351   -0.5126 H         1 <0>         0.4368
     23 C17        -0.1427    4.5568    1.4559 C.ar      1 <0>         0.4319
     24 C18        -1.3270    3.8408    1.6388 C.ar      1 <0>         0.0407
     25 C19        -1.5830    3.2695    2.8761 C.ar      1 <0>         0.0177
     26 C20        -0.6504    3.4426    3.8908 C.ar      1 <0>        -0.1513
     27 C21         0.4989    4.1627    3.6378 C.ar      1 <0>         0.1460
     28 O2         -2.2142    3.7015    0.6174 O.3       1 <0>        -0.4612
     29 H3          1.6644   12.9283    2.5953 H         1 <0>         0.1485
     30 H4         -0.3408   11.6527    1.9530 H         1 <0>         0.1478
     31 H5         -1.2918    9.5095    1.0927 H         1 <0>         0.1404
     32 H6         -0.9393    7.2360    0.2913 H         1 <0>         0.1295
     33 H7          3.8871   11.8906    2.4192 H         1 <0>         0.1695
     34 H8          3.9610    7.6310   -0.0594 H         1 <0>         0.4005
     35 H9         -0.3087    6.1727   -2.0733 H         1 <0>         0.1313
     36 H10         0.2532    6.2186   -4.4699 H         1 <0>         0.1465
     37 H11         4.3768    5.6724   -3.5100 H         1 <0>         0.1484
     38 H12         3.8122    5.6364   -1.1139 H         1 <0>         0.1421
     39 H13        -2.4883    2.7062    3.0479 H         1 <0>         0.1807
     40 H14        -0.8212    3.0136    4.8671 H         1 <0>         0.1891
     41 H15         1.2276    4.2953    4.4238 H         1 <0>         0.1986
     42 H16        -2.0620    2.9204    0.0680 H         1 <0>         0.4091
     43 N3          0.7874    4.7336    2.4366 N.ar      1 <0>        -0.5216
     44 H17         1.6520    5.2646    2.2789 H         1 <0>         0.4700
@<TRIPOS>BOND
     1    1   10 ar
     2    1    2 ar
     3    1   29 1
     4    2    3 ar
     5    2   30 1
     6    3    8 ar
     7    3    4 ar
     8    4    5 ar
     9    4   31 1
    10    5    6 ar
    11    5   32 1
    12    6    7 ar
    13    6   12 1
    14    7    8 ar
    15    7   11 1
    16    8    9 ar
    17    9   10 ar
    18   10   33 1
    19   11   34 1
    20   12   13 1
    21   12   14 1
    22   12   21 1
    23   14   19 ar
    24   14   15 ar
    25   15   16 ar
    26   15   35 1
    27   16   17 ar
    28   16   36 1
    29   17   18 ar
    30   17   20 1
    31   18   19 ar
    32   18   37 1
    33   19   38 1
    34   21   22 1
    35   21   23 1
    36   23   24 ar
    37   23   43 ar
    38   24   25 ar
    39   24   28 1
    40   25   26 ar
    41   25   39 1
    42   26   27 ar
    43   26   40 1
    44   27   41 1
    45   27   43 ar
    46   28   42 1
    47   43   44 1
@<TRIPOS>MOLECULE
ZINC04164762
   50    53     0     0     0
SMALL
USER_CHARGES

@<TRIPOS>ATOM
      1 C1          0.4072    1.4283   -0.0466 C.3       1 <0>        -0.1430
      2 C2          0.3540   -0.0777   -0.0280 C.ar      1 <0>         0.0769
      3 C3          0.4051   -0.8046   -1.2103 C.ar      1 <0>        -0.1729
      4 C4          0.3546   -2.1829   -1.1593 C.ar      1 <0>         0.1517
      5 N1          0.2587   -2.8144   -0.0044 N.ar      1 <0>        -0.5072
      6 C5          0.2069   -2.1574    1.1439 C.ar      1 <0>         0.4535
      7 C6          0.2588   -0.7671    1.1671 C.ar      1 <0>        -0.2044
      8 N2          0.1055   -2.8629    2.3372 N.pl3     1 <0>        -0.6968
      9 C7          0.0478   -2.1424    3.6115 C.3       1 <0>         0.2480
     10 H1         -0.5053   -1.2127    3.4784 H         1 <0>         0.1168
     11 C8          1.4471   -1.8323    4.0771 C.ar      1 <0>        -0.1020
     12 C9          2.4515   -2.7694    3.9186 C.ar      1 <0>        -0.1136
     13 C10         3.7362   -2.4880    4.3447 C.ar      1 <0>        -0.0989
     14 C11         4.0195   -1.2692    4.9306 C.ar      1 <0>        -0.1314
     15 C12         3.0137   -0.3275    5.0907 C.ar      1 <0>         0.1170
     16 C13         1.7265   -0.6101    4.6566 C.ar      1 <0>        -0.1195
     17 O1          3.2899    0.8721    5.6666 O.3       1 <0>        -0.4927
     18 C14        -0.6463   -2.9969    4.6407 C.ar      1 <0>        -0.1230
     19 C15        -0.6008   -4.3837    4.5239 C.ar      1 <0>        -0.1152
     20 C16        -1.2175   -5.1837    5.4370 C.ar      1 <0>        -0.0790
     21 C17        -1.9105   -4.6063    6.5136 C.ar      1 <0>        -0.0949
     22 C18        -2.5597   -5.4006    7.4776 C.ar      1 <0>        -0.0558
     23 C19        -3.2138   -4.7703    8.4974 C.ar      1 <0>        -0.1564
     24 C20        -3.2245   -3.3784    8.5610 C.ar      1 <0>         0.1712
     25 N3         -2.6186   -2.6424    7.6613 N.ar      1 <0>        -0.4635
     26 C21        -1.9610   -3.1965    6.6388 C.ar      1 <0>         0.1140
     27 C22        -1.3056   -2.3995    5.6767 C.ar      1 <0>         0.1676
     28 O2         -1.3346   -1.0451    5.7774 O.3       1 <0>        -0.4733
     29 C23        -3.9522   -2.7013    9.6938 C.3       1 <0>        -0.1136
     30 H2          1.4453    1.7558    0.0101 H         1 <0>         0.1064
     31 H3         -0.0400    1.7963   -0.9699 H         1 <0>         0.0962
     32 H4         -0.1450    1.8219    0.8067 H         1 <0>         0.0929
     33 H5          0.4833   -0.2964   -2.1601 H         1 <0>         0.1806
     34 H6          0.3938   -2.7520   -2.0763 H         1 <0>         0.2079
     35 H7          0.2210   -0.2336    2.1053 H         1 <0>         0.1756
     36 H8          0.0730   -3.8323    2.3263 H         1 <0>         0.4177
     37 H9          2.2319   -3.7230    3.4615 H         1 <0>         0.1169
     38 H10         4.5189   -3.2215    4.2198 H         1 <0>         0.1322
     39 H11         5.0231   -1.0500    5.2639 H         1 <0>         0.1355
     40 H12         0.9427    0.1233    4.7759 H         1 <0>         0.1379
     41 H13         3.5595    1.5568    5.0393 H         1 <0>         0.3952
     42 H14        -0.0692   -4.8311    3.6971 H         1 <0>         0.1215
     43 H15        -1.1743   -6.2579    5.3336 H         1 <0>         0.1400
     44 H16        -2.5413   -6.4785    7.4124 H         1 <0>         0.1477
     45 H17        -3.7224   -5.3499    9.2535 H         1 <0>         0.1468
     46 H18        -2.0829   -0.6330    5.3243 H         1 <0>         0.3940
     47 H19        -3.2684   -2.5572   10.5303 H         1 <0>         0.0878
     48 H20        -4.3255   -1.7336    9.3588 H         1 <0>         0.0832
     49 H21        -4.7889   -3.3234   10.0115 H         1 <0>         0.0830
     50 H22         0.2250   -3.7838    0.0033 H         1 <0>         0.4413
@<TRIPOS>BOND
     1    1    2 1
     2    1   30 1
     3    1   31 1
     4    1   32 1
     5    2    7 ar
     6    2    3 ar
     7    3    4 ar
     8    3   33 1
     9    4    5 ar
    10    4   34 1
    11    5    6 ar
    12    5   50 1
    13    6    7 ar
    14    6    8 1
    15    7   35 1
    16    8    9 1
    17    8   36 1
    18    9   10 1
    19    9   11 1
    20    9   18 1
    21   11   16 ar
    22   11   12 ar
    23   12   13 ar
    24   12   37 1
    25   13   14 ar
    26   13   38 1
    27   14   15 ar
    28   14   39 1
    29   15   16 ar
    30   15   17 1
    31   16   40 1
    32   17   41 1
    33   18   27 ar
    34   18   19 ar
    35   19   20 ar
    36   19   42 1
    37   20   21 ar
    38   20   43 1
    39   21   26 ar
    40   21   22 ar
    41   22   23 ar
    42   22   44 1
    43   23   24 ar
    44   23   45 1
    45   24   25 ar
    46   24   29 1
    47   25   26 ar
    48   26   27 ar
    49   27   28 1
    50   28   46 1
    51   29   47 1
    52   29   48 1
    53   29   49 1
@<TRIPOS>MOLECULE
ZINC55028259
   62    63     0     0     0
SMALL
USER_CHARGES

@<TRIPOS>ATOM
      1 C1         -0.0187    1.5258    0.0104 C.3       1 <0>        -0.1714
      2 C2          0.0021   -0.0041    0.0020 C.3       1 <0>         0.1428
      3 H1         -1.0205   -0.3814    0.0098 H         1 <0>         0.0971
      4 C3          0.7182   -0.4975   -1.2568 C.3       1 <0>        -0.1041
      5 C4         -0.0218    0.0093   -2.4963 C.3       1 <0>        -0.1523
      6 C5          2.1536    0.0321   -1.2676 C.3       1 <0>        -0.1565
      7 N1          0.7106   -0.4894    1.1889 N.am      1 <0>        -0.6977
      8 C6          0.0512   -0.6335    2.3554 C.2       1 <0>         0.5005
      9 O1         -1.1288   -0.3614    2.4226 O.2       1 <0>        -0.5278
     10 C7          0.7801   -1.1327    3.5763 C.3       1 <0>        -0.0331
     11 N2         -0.1523   -1.2010    4.7095 N.4       1 <0>        -0.3704
     12 C8         -1.1884   -2.2022    4.4290 C.3       1 <0>        -0.0124
     13 C9         -2.2080   -2.2200    5.5699 C.3       1 <0>        -0.1510
     14 C10        -1.4954   -2.5734    6.8785 C.3       1 <0>         0.1556
     15 C11        -0.3685   -1.5656    7.1229 C.3       1 <0>        -0.1606
     16 C12         0.5829   -1.5720    5.9245 C.3       1 <0>        -0.0025
     17 N3         -2.4513   -2.5178    7.9873 N.am      1 <0>        -0.7459
     18 C13        -2.2321   -3.2417    9.1028 C.2       1 <0>         0.7062
     19 O2         -1.2411   -3.9408    9.1890 O.2       1 <0>        -0.5841
     20 N4         -3.1115   -3.1906   10.1229 N.am      1 <0>        -0.7367
     21 C14        -2.8733   -3.9774   11.3355 C.3       1 <0>         0.1626
     22 C15        -3.4104   -5.3962   11.1366 C.3       1 <0>        -0.1288
     23 C16        -3.1617   -6.2179   12.4030 C.3       1 <0>        -0.1184
     24 C17        -3.8782   -5.5624   13.5852 C.3       1 <0>        -0.1245
     25 C18        -3.3411   -4.1437   13.7842 C.3       1 <0>        -0.1170
     26 C19        -3.5899   -3.3219   12.5178 C.3       1 <0>        -0.1268
     27 H2          1.0039    1.9031    0.0027 H         1 <0>         0.0658
     28 H3         -0.5459    1.8868   -0.8726 H         1 <0>         0.0799
     29 H4         -0.5289    1.8773    0.9072 H         1 <0>         0.0596
     30 H5          0.7330   -1.5874   -1.2628 H         1 <0>         0.0791
     31 H6         -0.0366    1.0992   -2.4903 H         1 <0>         0.0647
     32 H7          0.4884   -0.3422   -3.3931 H         1 <0>         0.0667
     33 H8         -1.0444   -0.3679   -2.4886 H         1 <0>         0.0605
     34 H9          2.1388    1.1220   -1.2617 H         1 <0>         0.0659
     35 H10         2.6808   -0.3290   -0.3846 H         1 <0>         0.0490
     36 H11         2.6638   -0.3194   -2.1644 H         1 <0>         0.0672
     37 H12         1.6544   -0.7070    1.1351 H         1 <0>         0.4093
     38 H13         1.1839   -2.1254    3.3778 H         1 <0>         0.1601
     39 H14         1.5952   -0.4503    3.8172 H         1 <0>         0.1609
     40 H15        -1.6925   -1.9511    3.4957 H         1 <0>         0.1526
     41 H16        -0.7275   -3.1858    4.3387 H         1 <0>         0.1293
     42 H17        -2.6697   -1.2368    5.6608 H         1 <0>         0.0950
     43 H18        -2.9754   -2.9652    5.3606 H         1 <0>         0.1191
     44 H19        -1.0772   -3.5773    6.8062 H         1 <0>         0.1057
     45 H20        -0.7920   -0.5688    7.2461 H         1 <0>         0.0904
     46 H21         0.1789   -1.8431    8.0237 H         1 <0>         0.1202
     47 H22         1.0060   -2.5691    5.8024 H         1 <0>         0.1349
     48 H23         1.3866   -0.8557    6.0953 H         1 <0>         0.1358
     49 H24        -3.2419   -1.9601    7.9186 H         1 <0>         0.4016
     50 H25        -3.9022   -2.6329   10.0542 H         1 <0>         0.3975
     51 H26        -1.8030   -4.0191   11.5371 H         1 <0>         0.0899
     52 H27        -4.4808   -5.3545   10.9349 H         1 <0>         0.0633
     53 H28        -2.9000   -5.8632   10.2943 H         1 <0>         0.0658
     54 H29        -3.5443   -7.2287   12.2612 H         1 <0>         0.0673
     55 H30        -2.0913   -6.2596   12.6046 H         1 <0>         0.0652
     56 H31        -4.9486   -5.5207   13.3836 H         1 <0>         0.0638
     57 H32        -3.7010   -6.1478   14.4874 H         1 <0>         0.0675
     58 H33        -3.8516   -3.6767   14.6264 H         1 <0>         0.0706
     59 H34        -2.2707   -4.1853   13.9858 H         1 <0>         0.0663
     60 H35        -3.2072   -2.3112   12.6595 H         1 <0>         0.0685
     61 H36        -4.6603   -3.2803   12.3161 H         1 <0>         0.0690
     62 H37        -0.5857   -0.2995    4.8419 H         1 <0>         0.4294
@<TRIPOS>BOND
     1    1    2 1
     2    1   27 1
     3    1   28 1
     4    1   29 1
     5    2    3 1
     6    2    4 1
     7    2    7 1
     8    4    5 1
     9    4    6 1
    10    4   30 1
    11    5   31 1
    12    5   32 1
    13    5   33 1
    14    6   34 1
    15    6   35 1
    16    6   36 1
    17    7    8 am
    18    7   37 1
    19    8    9 2
    20    8   10 1
    21   10   11 1
    22   10   38 1
    23   10   39 1
    24   11   16 1
    25   11   12 1
    26   11   62 1
    27   12   13 1
    28   12   40 1
    29   12   41 1
    30   13   14 1
    31   13   42 1
    32   13   43 1
    33   14   15 1
    34   14   17 1
    35   14   44 1
    36   15   16 1
    37   15   45 1
    38   15   46 1
    39   16   47 1
    40   16   48 1
    41   17   18 am
    42   17   49 1
    43   18   19 2
    44   18   20 am
    45   20   21 1
    46   20   50 1
    47   21   26 1
    48   21   22 1
    49   21   51 1
    50   22   23 1
    51   22   52 1
    52   22   53 1
    53   23   24 1
    54   23   54 1
    55   23   55 1
    56   24   25 1
    57   24   56 1
    58   24   57 1
    59   25   26 1
    60   25   58 1
    61   25   59 1
    62   26   60 1
    63   26   61 1
@<TRIPOS>MOLECULE
ZINC63676494
   49    51     0     0     0
SMALL
USER_CHARGES

@<TRIPOS>ATOM
      1 C1         -0.0184    1.5028    0.0103 C.3       1 <0>        -0.1321
      2 C2          0.0021   -0.0041    0.0020 C.ar      1 <0>        -0.1024
      3 C3          0.0054   -0.6798   -1.2260 C.ar      1 <0>         0.0569
      4 C4          0.0232   -2.0265   -1.3172 C.ar      1 <0>        -0.2030
      5 C5          0.0393   -2.8264   -0.1414 C.ar      1 <0>         0.3346
      6 N1          0.0568   -4.1260    0.0301 N.pl3     1 <0>        -0.5815
      7 C6          0.0669   -4.4078    1.4699 C.3       1 <0>         0.0986
      8 H1         -0.8185   -4.9800    1.7469 H         1 <0>         0.1748
      9 C7          0.0525   -3.0602    2.1563 C.2       1 <0>         0.0685
     10 C8          0.0362   -2.1366    1.1684 C.ar      1 <0>        -0.1647
     11 C9          0.0223   -0.6689    1.1796 C.ar      1 <0>        -0.0484
     12 C10         0.0550   -2.7994    3.6406 C.3       1 <0>        -0.1012
     13 C11         0.0369   -1.2906    3.8933 C.3       1 <0>         0.0918
     14 N2          0.0393   -1.0370    5.3361 N.pl3     1 <0>        -0.7012
     15 C12         0.0248    0.2546    5.8072 C.2       1 <0>         0.7504
     16 N3          0.0080    1.3082    4.9241 N.pl3     1 <0>        -0.8782
     17 N4          0.0270    0.4801    7.0909 N.2       1 <0>        -1.0421
     18 S1          0.0095    2.0358    7.6583 S.o2      1 <0>         2.6493
     19 O1          1.2460    2.6218    7.2750 O.2       1 <0>        -0.9824
     20 O2         -1.2444    2.5902    7.2848 O.2       1 <0>        -0.9824
     21 C13         0.0175    1.9487    9.4181 C.ar      1 <0>        -0.6394
     22 C14        -1.1763    1.8936   10.1128 C.ar      1 <0>        -0.0196
     23 C15        -1.1701    1.8252   11.4934 C.ar      1 <0>        -0.1397
     24 C16         0.0300    1.8115   12.1793 C.ar      1 <0>        -0.0604
     25 C17         1.2239    1.8656   11.4846 C.ar      1 <0>        -0.1397
     26 C18         1.2177    1.9296   10.1037 C.ar      1 <0>        -0.0197
     27 C19         1.3326   -5.1801    1.8472 C.3       1 <0>        -0.1572
     28 H2          1.0042    1.8801    0.0026 H         1 <0>         0.0905
     29 H3         -0.5455    1.8639   -0.8728 H         1 <0>         0.0849
     30 H4         -0.5286    1.8543    0.9071 H         1 <0>         0.0813
     31 H5         -0.0072   -0.0993   -2.1366 H         1 <0>         0.1626
     32 H6          0.0250   -2.4990   -2.2884 H         1 <0>         0.1633
     33 H7          0.0241   -0.1279    2.1144 H         1 <0>         0.1592
     34 H8         -0.8275   -3.2539    4.0908 H         1 <0>         0.1368
     35 H9          0.9523   -3.2313    4.0838 H         1 <0>         0.1365
     36 H10         0.9195   -0.8361    3.4430 H         1 <0>         0.0865
     37 H11        -0.8603   -0.8587    3.4500 H         1 <0>         0.0865
     38 H12         0.0512   -1.7804    5.9592 H         1 <0>         0.4327
     39 H13         0.0064    1.1403    3.9687 H         1 <0>         0.4049
     40 H14        -2.1140    1.9044    9.5769 H         1 <0>         0.1396
     41 H15        -2.1028    1.7829   12.0362 H         1 <0>         0.1359
     42 H16         0.0349    1.7587   13.2581 H         1 <0>         0.1345
     43 H17         2.1615    1.8552   12.0205 H         1 <0>         0.1359
     44 H18         2.1504    1.9682    9.5607 H         1 <0>         0.1397
     45 H19         2.2105   -4.5966    1.5700 H         1 <0>         0.0827
     46 H20         1.3411   -5.3608    2.9221 H         1 <0>         0.1080
     47 H21         1.3480   -6.1331    1.3185 H         1 <0>         0.0962
     48 H22         0.0620   -4.7902   -0.6768 H         1 <0>         0.4551
     49 H23        -0.0022    2.2194    5.2564 H         1 <0>         0.4172
@<TRIPOS>BOND
     1    1    2 1
     2    1   28 1
     3    1   29 1
     4    1   30 1
     5    2   11 ar
     6    2    3 ar
     7    3    4 ar
     8    3   31 1
     9    4    5 ar
    10    4   32 1
    11    5   10 ar
    12    5    6 2
    13    6    7 1
    14    6   48 1
    15    7    8 1
    16    7    9 1
    17    7   27 1
    18    9   10 2
    19    9   12 1
    20   10   11 ar
    21   11   33 1
    22   12   13 1
    23   12   34 1
    24   12   35 1
    25   13   14 1
    26   13   36 1
    27   13   37 1
    28   14   15 1
    29   14   38 1
    30   15   16 1
    31   15   17 2
    32   16   39 1
    33   16   49 1
    34   17   18 1
    35   18   19 2
    36   18   20 2
    37   18   21 1
    38   21   26 ar
    39   21   22 ar
    40   22   23 ar
    41   22   40 1
    42   23   24 ar
    43   23   41 1
    44   24   25 ar
    45   24   42 1
    46   25   26 ar
    47   25   43 1
    48   26   44 1
    49   27   45 1
    50   27   46 1
    51   27   47 1
@<TRIPOS>MOLECULE
ZINC67408012
   53    54     0     0     0
SMALL
USER_CHARGES

@<TRIPOS>ATOM
      1 C1          7.8075   -3.2897   10.9916 C.3       1 <0>        -0.1164
      2 C2          7.2712   -4.4594   10.2072 C.2       1 <0>         0.0008
      3 C3          7.9849   -5.6234   10.0510 C.2       1 <0>        -0.1835
      4 C4          7.4426   -6.6377    9.3328 C.2       1 <0>        -0.1896
      5 S1          5.9478   -6.0447    8.8466 S.3       1 <0>         0.1690
      6 C5          6.0240   -4.4318    9.6021 C.2       1 <0>        -0.2797
      7 C6          5.0282   -3.3562    9.5864 C.2       1 <0>         0.6167
      8 O1          5.2547   -2.3088   10.1633 O.2       1 <0>        -0.4987
      9 N1          3.8618   -3.5272    8.9332 N.am      1 <0>        -0.5357
     10 N2          2.9100   -2.4992    8.9182 N.am      1 <0>        -0.5176
     11 C7          1.7436   -2.6702    8.2650 C.2       1 <0>         0.7185
     12 O2          0.9177   -1.7781    8.2520 O.2       1 <0>        -0.5450
     13 N3          1.4928   -3.8302    7.6262 N.am      1 <0>        -0.7630
     14 C8          0.2249   -4.0160    6.9162 C.3       1 <0>         0.1165
     15 C9          0.2516   -5.3487    6.1651 C.3       1 <0>         0.0443
     16 C10        -1.0173   -5.4839    5.3209 C.3       1 <0>        -0.1305
     17 C11        -2.2444   -5.4373    6.2335 C.3       1 <0>        -0.1230
     18 C12        -2.1760   -6.5882    7.2393 C.3       1 <0>        -0.1259
     19 C13        -0.9071   -6.4531    8.0835 C.3       1 <0>        -0.0870
     20 H1         -0.9262   -5.5037    8.6185 H         1 <0>         0.0842
     21 C14         0.3200   -6.4997    7.1708 C.3       1 <0>        -0.1326
     22 C15        -0.8387   -7.6040    9.0892 C.3       1 <0>        -0.1529
     23 N4          1.4298   -5.3935    5.2889 N.4       1 <0>        -0.3831
     24 C16         1.4364   -6.6581    4.5414 C.3       1 <0>        -0.0588
     25 C17         1.3820   -4.2678    4.3462 C.3       1 <0>        -0.0604
     26 H2          7.5131   -3.3874   12.0365 H         1 <0>         0.0843
     27 H3          8.8950   -3.2725   10.9205 H         1 <0>         0.0746
     28 H4          7.4021   -2.3631   10.5850 H         1 <0>         0.0909
     29 H5          8.9642   -5.7288   10.4940 H         1 <0>         0.1485
     30 H6          7.8733   -7.6052    9.1213 H         1 <0>         0.1961
     31 H7          3.6812   -4.3621    8.4734 H         1 <0>         0.4097
     32 H8          3.0906   -1.6644    9.3780 H         1 <0>         0.4536
     33 H9          2.1517   -4.5419    7.6366 H         1 <0>         0.3830
     34 H10        -0.5960   -4.0195    7.6332 H         1 <0>         0.1201
     35 H11         0.0834   -3.2014    6.2059 H         1 <0>         0.1036
     36 H12        -1.0660   -4.6639    4.6044 H         1 <0>         0.0933
     37 H13        -0.9982   -6.4333    4.7858 H         1 <0>         0.0971
     38 H14        -2.2634   -4.4879    6.7686 H         1 <0>         0.0783
     39 H15        -3.1483   -5.5336    5.6321 H         1 <0>         0.0902
     40 H16        -3.0502   -6.5551    7.8894 H         1 <0>         0.0825
     41 H17        -2.1570   -7.5377    6.7042 H         1 <0>         0.0728
     42 H18         0.3390   -7.4491    6.6358 H         1 <0>         0.0974
     43 H19         1.2239   -6.4034    7.7723 H         1 <0>         0.0824
     44 H20        -0.8197   -8.5535    8.5541 H         1 <0>         0.0612
     45 H21         0.0652   -7.5077    9.6906 H         1 <0>         0.0599
     46 H22        -1.7130   -7.5708    9.7394 H         1 <0>         0.0691
     47 H23         0.5392   -6.7209    3.9256 H         1 <0>         0.1291
     48 H24         2.3189   -6.6981    3.9029 H         1 <0>         0.1289
     49 H25         1.4561   -7.4936    5.2412 H         1 <0>         0.1270
     50 H26         1.3771   -3.3294    4.9008 H         1 <0>         0.1255
     51 H27         2.2563   -4.3010    3.6961 H         1 <0>         0.1294
     52 H28         0.4773   -4.3377    3.7424 H         1 <0>         0.1301
     53 H29         2.2673   -5.3288    5.8478 H         1 <0>         0.4149
@<TRIPOS>BOND
     1    1    2 1
     2    1   26 1
     3    1   27 1
     4    1   28 1
     5    2    6 2
     6    2    3 1
     7    3    4 2
     8    3   29 1
     9    4    5 1
    10    4   30 1
    11    5    6 1
    12    6    7 1
    13    7    8 2
    14    7    9 am
    15    9   10 1
    16    9   31 1
    17   10   11 am
    18   10   32 1
    19   11   12 2
    20   11   13 am
    21   13   14 1
    22   13   33 1
    23   14   15 1
    24   14   34 1
    25   14   35 1
    26   15   21 1
    27   15   16 1
    28   15   23 1
    29   16   17 1
    30   16   36 1
    31   16   37 1
    32   17   18 1
    33   17   38 1
    34   17   39 1
    35   18   19 1
    36   18   40 1
    37   18   41 1
    38   19   20 1
    39   19   21 1
    40   19   22 1
    41   21   42 1
    42   21   43 1
    43   22   44 1
    44   22   45 1
    45   22   46 1
    46   23   24 1
    47   23   25 1
    48   23   53 1
    49   24   47 1
    50   24   48 1
    51   24   49 1
    52   25   50 1
    53   25   51 1
    54   25   52 1
@<TRIPOS>MOLECULE
ZINC05496493
   50    53     0     0     0
SMALL
USER_CHARGES
1-[3,4-dihydroxy-5-(hydroxymethyl)tetrahydrofuran-2-yl]-4-[2-(1H-indol-3-yl)ethylamino]pyrimidin-2-one
@<TRIPOS>ATOM
      1 C1         -3.8139    9.1683    3.0398 C.ar      1 <0>        -0.1458
      2 C2         -4.2708    9.5878    4.2819 C.ar      1 <0>        -0.0980
      3 C3         -5.3282    8.9510    4.8933 C.ar      1 <0>        -0.1314
      4 C4         -5.9389    7.8691    4.2671 C.ar      1 <0>         0.0946
      5 C5         -5.4704    7.4462    3.0099 C.ar      1 <0>        -0.0998
      6 C6         -4.4018    8.1109    2.4050 C.ar      1 <0>        -0.0693
      7 C7         -6.3103    6.3088    2.6267 C.2       1 <0>        -0.1705
      8 C8         -7.1864    6.1140    3.6249 C.2       1 <0>         0.0578
      9 N1         -6.9796    7.0369    4.6138 N.pl3     1 <0>        -0.5953
     10 H1         -7.4903    7.0963    5.4363 H         1 <0>         0.4163
     11 C9         -6.2061    5.5055    1.3559 C.3       1 <0>        -0.0408
     12 C10        -5.1484    4.4135    1.5281 C.3       1 <0>         0.0781
     13 N2         -5.0472    3.6326    0.2927 N.pl3     1 <0>        -0.6051
     14 C11        -4.1552    2.5886    0.2100 C.2       1 <0>         0.4452
     15 C12        -4.0541    1.8347   -0.9773 C.2       1 <0>        -0.2870
     16 C13        -3.1633    0.8165   -1.0338 C.2       1 <0>         0.1952
     17 N3         -2.3974    0.5397    0.0587 N.am      1 <0>        -0.5230
     18 C14        -2.5175    1.2774    1.1777 C.2       1 <0>         0.6632
     19 O1         -1.8202    1.0186    2.1446 O.2       1 <0>        -0.5394
     20 N4         -3.3849    2.2857    1.2467 N.2       1 <0>        -0.5910
     21 C15        -1.4339   -0.5630    0.0127 C.3       1 <0>         0.2969
     22 H2         -0.5006   -0.2595    0.4869 H         1 <0>         0.1472
     23 C16        -2.0126   -1.7949    0.7355 C.3       1 <0>         0.0824
     24 H3         -1.3404   -2.1226    1.5285 H         1 <0>         0.1043
     25 C17        -2.1142   -2.8717   -0.3720 C.3       1 <0>         0.0481
     26 H4         -3.0428   -3.4354   -0.2825 H         1 <0>         0.0924
     27 C18        -2.1110   -2.0122   -1.6618 C.3       1 <0>         0.0351
     28 H5         -3.1066   -1.6160   -1.8615 H         1 <0>         0.0930
     29 O2         -1.1911   -0.9434   -1.3520 O.3       1 <0>        -0.3358
     30 C19        -1.6079   -2.8270   -2.8551 C.3       1 <0>         0.0789
     31 O3         -1.6294   -2.0141   -4.0301 O.3       1 <0>        -0.5635
     32 O4         -0.9840   -3.7456   -0.3388 O.3       1 <0>        -0.5431
     33 O5         -3.3059   -1.5009    1.2675 O.3       1 <0>        -0.5389
     34 H6         -2.9874    9.6821    2.5715 H         1 <0>         0.1223
     35 H7         -3.7960   10.4255    4.7710 H         1 <0>         0.1248
     36 H8         -5.6750    9.2837    5.8605 H         1 <0>         0.1190
     37 H9         -4.0415    7.7905    1.4386 H         1 <0>         0.1217
     38 H10        -7.9422    5.3428    3.6449 H         1 <0>         0.1693
     39 H11        -5.9205    6.1617    0.5337 H         1 <0>         0.0818
     40 H12        -7.1700    5.0464    1.1363 H         1 <0>         0.0718
     41 H13        -5.4340    3.7574    2.3502 H         1 <0>         0.0561
     42 H14        -4.1845    4.8727    1.7477 H         1 <0>         0.0880
     43 H15        -5.9315    3.2113    0.0913 H         1 <0>         0.3658
     44 H16        -4.6745    2.0686   -1.8298 H         1 <0>         0.1601
     45 H17        -3.0637    0.2276   -1.9337 H         1 <0>         0.1731
     46 H18        -0.5883   -3.1611   -2.6630 H         1 <0>         0.0670
     47 H19        -2.2527   -3.6937   -3.0010 H         1 <0>         0.0656
     48 H20        -1.3226   -2.4670   -4.8275 H         1 <0>         0.3877
     49 H21        -1.0019   -4.4376   -1.0141 H         1 <0>         0.3857
     50 H22        -3.7172   -2.2418    1.7333 H         1 <0>         0.3894
@<TRIPOS>BOND
     1    1    6 ar
     2    1    2 ar
     3    1   34 1
     4    2    3 ar
     5    2   35 1
     6    3    4 ar
     7    3   36 1
     8    4    9 1
     9    4    5 ar
    10    5    6 ar
    11    5    7 1
    12    6   37 1
    13    7    8 2
    14    7   11 1
    15    8    9 1
    16    8   38 1
    17    9   10 1
    18   11   12 1
    19   11   39 1
    20   11   40 1
    21   12   13 1
    22   12   41 1
    23   12   42 1
    24   13   14 1
    25   13   43 1
    26   14   20 2
    27   14   15 1
    28   15   16 2
    29   15   44 1
    30   16   17 1
    31   16   45 1
    32   17   18 am
    33   17   21 1
    34   18   19 2
    35   18   20 1
    36   21   22 1
    37   21   29 1
    38   21   23 1
    39   23   24 1
    40   23   25 1
    41   23   33 1
    42   25   26 1
    43   25   27 1
    44   25   32 1
    45   27   28 1
    46   27   29 1
    47   27   30 1
    48   30   31 1
    49   30   46 1
    50   30   47 1
    51   31   48 1
    52   32   49 1
    53   33   50 1
@<TRIPOS>MOLECULE
ZINC12429155
   52    55     0     0     0
SMALL
USER_CHARGES
(2R)-2-(4-hydroxyphenyl)-7-[(2R,3R,4R,5S,6S)-3,4,5-trihydroxy-6-(hydroxymethyl)tetrahydropyran-2-yl]oxy-chroman-4-one
@<TRIPOS>ATOM
      1 C1          5.6945   -2.2494    0.9526 C.ar      1 <0>        -0.0718
      2 C2          6.9466   -2.7801    1.1957 C.ar      1 <0>        -0.1460
      3 C3          7.5542   -3.5854    0.2433 C.ar      1 <0>         0.1169
      4 C4          6.8997   -3.8605   -0.9487 C.ar      1 <0>        -0.1448
      5 C5          5.6452   -3.3323   -1.1844 C.ar      1 <0>        -0.0831
      6 C6          5.0420   -2.5297   -0.2338 C.ar      1 <0>        -0.1037
      7 C7          3.6736   -1.9544   -0.4937 C.3       1 <0>         0.1469
      8 H1          3.4711   -1.9672   -1.5647 H         1 <0>         0.0909
      9 C8          2.6165   -2.7946    0.2376 C.3       1 <0>        -0.1837
     10 C9          1.2675   -2.1519   -0.0314 C.2       1 <0>         0.4050
     11 O1          0.2762   -2.8166   -0.2499 O.2       1 <0>        -0.4439
     12 C10         1.2245   -0.6819   -0.0130 C.ar      1 <0>        -0.2846
     13 C11         0.0021   -0.0041    0.0020 C.ar      1 <0>         0.0158
     14 C12        -0.0164    1.3616    0.0095 C.ar      1 <0>        -0.2266
     15 C13         1.1768    2.0799    0.0020 C.ar      1 <0>         0.1995
     16 C14         2.3972    1.4205   -0.0103 C.ar      1 <0>        -0.1929
     17 C15         2.4340    0.0354   -0.0151 C.ar      1 <0>         0.2186
     18 O2          3.6232   -0.6104   -0.0155 O.3       1 <0>        -0.2987
     19 O3          1.1453    3.4362    0.0067 O.3       1 <0>        -0.2875
     20 C16        -0.1426    4.0552    0.0195 C.3       1 <0>         0.2231
     21 H2         -0.7629    3.6199   -0.7640 H         1 <0>         0.0733
     22 C17         0.0109    5.5583   -0.2269 C.3       1 <0>         0.0663
     23 H3          0.4419    5.7234   -1.2144 H         1 <0>         0.0747
     24 C18        -1.3669    6.2234   -0.1520 C.3       1 <0>         0.0795
     25 H4         -2.0051    5.8304   -0.9434 H         1 <0>         0.0809
     26 C19        -1.9952    5.9190    1.2115 C.3       1 <0>         0.0899
     27 H5         -2.9989    6.3421    1.2527 H         1 <0>         0.0764
     28 C20        -2.0712    4.4019    1.4023 C.3       1 <0>         0.1118
     29 H6         -2.7169    3.9712    0.6370 H         1 <0>         0.0819
     30 O4         -0.7610    3.8426    1.2901 O.3       1 <0>        -0.3608
     31 C21        -2.6427    4.0898    2.7868 C.3       1 <0>         0.0894
     32 O5         -2.8225    2.6785    2.9208 O.3       1 <0>        -0.5682
     33 O6         -1.1926    6.4920    2.2457 O.3       1 <0>        -0.5283
     34 O7         -1.2248    7.6365   -0.3099 O.3       1 <0>        -0.5453
     35 O8          0.8673    6.1205    0.7694 O.3       1 <0>        -0.5203
     36 O9          8.7885   -4.1035    0.4773 O.3       1 <0>        -0.4991
     37 H7          5.2232   -1.6183    1.6915 H         1 <0>         0.1339
     38 H8          7.4542   -2.5642    2.1242 H         1 <0>         0.1334
     39 H9          7.3708   -4.4868   -1.6918 H         1 <0>         0.1342
     40 H10         5.1353   -3.5462   -2.1121 H         1 <0>         0.1316
     41 H11         2.6384   -3.7326   -0.1085 H         1 <0>         0.1020
     42 H12         2.8206   -2.7978    1.3084 H         1 <0>         0.1163
     43 H13        -0.9247   -0.5585    0.0080 H         1 <0>         0.1408
     44 H14        -0.9602    1.8866    0.0169 H         1 <0>         0.1376
     45 H15         3.3173    1.9859   -0.0164 H         1 <0>         0.1483
     46 H16        -1.9521    4.4425    3.5529 H         1 <0>         0.0702
     47 H17        -3.6032    4.5913    2.9049 H         1 <0>         0.0652
     48 H18        -3.1827    2.4074    3.7763 H         1 <0>         0.3850
     49 H19        -1.0980    7.4523    2.1837 H         1 <0>         0.3858
     50 H20        -0.8268    7.9002   -1.1508 H         1 <0>         0.3875
     51 H21         1.7570    5.7417    0.7825 H         1 <0>         0.3822
     52 H22         9.5149   -3.5398    0.1777 H         1 <0>         0.3944
@<TRIPOS>BOND
     1    1    6 ar
     2    1    2 ar
     3    1   37 1
     4    2    3 ar
     5    2   38 1
     6    3    4 ar
     7    3   36 1
     8    4    5 ar
     9    4   39 1
    10    5    6 ar
    11    5   40 1
    12    6    7 1
    13    7    8 1
    14    7   18 1
    15    7    9 1
    16    9   10 1
    17    9   41 1
    18    9   42 1
    19   10   11 2
    20   10   12 1
    21   12   17 ar
    22   12   13 ar
    23   13   14 ar
    24   13   43 1
    25   14   15 ar
    26   14   44 1
    27   15   16 ar
    28   15   19 1
    29   16   17 ar
    30   16   45 1
    31   17   18 1
    32   19   20 1
    33   20   21 1
    34   20   30 1
    35   20   22 1
    36   22   23 1
    37   22   24 1
    38   22   35 1
    39   24   25 1
    40   24   26 1
    41   24   34 1
    42   26   27 1
    43   26   28 1
    44   26   33 1
    45   28   29 1
    46   28   30 1
    47   28   31 1
    48   31   32 1
    49   31   46 1
    50   31   47 1
    51   32   48 1
    52   33   49 1
    53   34   50 1
    54   35   51 1
    55   36   52 1
@<TRIPOS>MOLECULE
ZINC12033303
   47    49     0     0     0
SMALL
USER_CHARGES

@<TRIPOS>ATOM
      1 C1          1.0932    1.5009    0.6178 C.3       1 <0>        -0.1212
      2 C2          1.0990   -0.0061    0.6182 C.ar      1 <0>        -0.0589
      3 C3          2.1744   -0.6909    0.0808 C.ar      1 <0>        -0.1277
      4 C4          2.1860   -2.0704    0.0780 C.ar      1 <0>        -0.0533
      5 C5          1.1095   -2.7753    0.6190 C.ar      1 <0>        -0.1375
      6 C6          0.0277   -2.0783    1.1596 C.ar      1 <0>        -0.0836
      7 C7          0.0313   -0.6987    1.1611 C.ar      1 <0>        -0.1286
      8 C8          1.1149   -4.2535    0.6190 C.2       1 <0>         0.5636
      9 O1          2.0585   -4.8581    0.1470 O.2       1 <0>        -0.5124
     10 N1          0.0739   -4.9312    1.1421 N.am      1 <0>        -0.6439
     11 C9          0.0296   -6.3355    1.0486 C.2       1 <0>        -0.1343
     12 C10        -0.0454   -7.1211    2.1944 C.2       1 <0>         0.4578
     13 N2         -0.0869   -8.4536    2.0830 N.2       1 <0>        -0.5703
     14 C11        -0.0581   -9.0410    0.9051 C.2       1 <0>         0.3893
     15 N3          0.0154   -8.3188   -0.2475 N.am      1 <0>        -0.6157
     16 C12         0.0544   -6.9706   -0.2018 C.2       1 <0>         0.5480
     17 O2          0.1147   -6.3153   -1.2306 O.2       1 <0>        -0.5192
     18 S1         -0.1155  -10.7999    0.8177 S.3       1 <0>         0.0978
     19 C13        -0.2059  -11.3227    2.5524 C.3       1 <0>        -0.1449
     20 C14        -0.2609  -12.8271    2.6214 C.2       1 <0>         0.5470
     21 O3         -0.2411  -13.4821    1.6009 O.2       1 <0>        -0.4858
     22 N4         -0.3322  -13.4447    3.8172 N.am      1 <0>        -0.6259
     23 C15        -0.3832  -14.8374    3.8811 C.2       1 <0>         0.3303
     24 C16        -0.3622  -15.7218    2.7793 C.2       1 <0>        -0.2886
     25 C17        -0.4276  -16.9790    3.2521 C.2       1 <0>         0.0843
     26 O4         -0.4880  -16.9199    4.5916 O.3       1 <0>        -0.0668
     27 N5         -0.4531  -15.5562    4.9720 N.2       1 <0>        -0.3481
     28 C18        -0.4321  -18.2365    2.4216 C.3       1 <0>        -0.0905
     29 N6         -0.0764   -6.5271    3.4431 N.pl3     1 <0>        -0.8241
     30 H1          1.5566    1.8662    1.5343 H         1 <0>         0.0757
     31 H2          1.6532    1.8661   -0.2431 H         1 <0>         0.0706
     32 H3          0.0657    1.8603    0.5619 H         1 <0>         0.0701
     33 H4          3.0065   -0.1443   -0.3378 H         1 <0>         0.1308
     34 H5          3.0259   -2.6038   -0.3421 H         1 <0>         0.1364
     35 H6         -0.8083   -2.6178    1.5797 H         1 <0>         0.1240
     36 H7         -0.8031   -0.1582    1.5830 H         1 <0>         0.1294
     37 H8         -0.6447   -4.4516    1.5830 H         1 <0>         0.3994
     38 H9          0.6755  -10.9665    3.0857 H         1 <0>         0.1426
     39 H10        -1.1019  -10.9049    3.0115 H         1 <0>         0.1425
     40 H11        -0.3481  -12.9209    4.6334 H         1 <0>         0.4269
     41 H12        -0.3042  -15.4376    1.7390 H         1 <0>         0.1834
     42 H13         0.5927  -18.5750    2.2693 H         1 <0>         0.0973
     43 H14        -0.9976  -19.0115    2.9389 H         1 <0>         0.0889
     44 H15        -0.8947  -18.0325    1.4559 H         1 <0>         0.0983
     45 H16        -0.0459   -5.5608    3.5214 H         1 <0>         0.4140
     46 H17        -0.1287   -7.0769    4.2405 H         1 <0>         0.4099
     47 H18         0.0356   -8.7745   -1.1035 H         1 <0>         0.4231
@<TRIPOS>BOND
     1    1    2 1
     2    1   30 1
     3    1   31 1
     4    1   32 1
     5    2    7 ar
     6    2    3 ar
     7    3    4 ar
     8    3   33 1
     9    4    5 ar
    10    4   34 1
    11    5    6 ar
    12    5    8 1
    13    6    7 ar
    14    6   35 1
    15    7   36 1
    16    8    9 2
    17    8   10 am
    18   10   11 1
    19   10   37 1
    20   11   16 1
    21   11   12 2
    22   12   13 1
    23   12   29 1
    24   13   14 2
    25   14   15 1
    26   14   18 1
    27   15   16 am
    28   15   47 1
    29   16   17 2
    30   18   19 1
    31   19   20 1
    32   19   38 1
    33   19   39 1
    34   20   21 2
    35   20   22 am
    36   22   23 1
    37   22   40 1
    38   23   27 2
    39   23   24 1
    40   24   25 2
    41   24   41 1
    42   25   26 1
    43   25   28 1
    44   26   27 1
    45   28   42 1
    46   28   43 1
    47   28   44 1
    48   29   45 1
    49   29   46 1
@<TRIPOS>MOLECULE
ZINC40824597
   48    50     0     0     0
SMALL
USER_CHARGES

@<TRIPOS>ATOM
      1 C1          1.8708   -0.0472   -0.1153 C.3       1 <0>        -0.0999
      2 C2          1.5161   -1.4988    0.0796 C.2       1 <0>        -0.0181
      3 C3          1.4809   -2.4947   -0.9039 C.2       1 <0>        -0.1696
      4 C4          1.1086   -3.6674   -0.2908 C.2       1 <0>         0.0890
      5 O1          0.9257   -3.4149    1.0033 O.3       1 <0>        -0.1417
      6 C5          1.1700   -2.1084    1.2533 C.2       1 <0>        -0.0954
      7 C6          1.0760   -1.4544    2.5634 C.2       1 <0>         0.6135
      8 O2          1.3171   -0.2664    2.6691 O.2       1 <0>        -0.5129
      9 N1          0.7225   -2.1696    3.6497 N.am      1 <0>        -0.5074
     10 N2          0.6328   -1.5452    4.9007 N.am      1 <0>        -0.5098
     11 C7          0.2793   -2.2603    5.9870 C.2       1 <0>         0.5608
     12 O3          0.0384   -3.4470    5.8814 O.2       1 <0>        -0.4884
     13 C8          0.1846   -1.6014    7.3071 C.ar      1 <0>        -0.0638
     14 C9          1.2733   -0.8907    7.8156 C.ar      1 <0>        -0.0853
     15 C10         1.1783   -0.2783    9.0479 C.ar      1 <0>        -0.0689
     16 C11         0.0072   -0.3672    9.7798 C.ar      1 <0>        -0.0921
     17 C12        -1.0753   -1.0699    9.2816 C.ar      1 <0>        -0.0549
     18 C13        -0.9954   -1.6823    8.0477 C.ar      1 <0>        -0.0074
     19 N3         -2.1569   -2.4282    7.5133 N.pl3     1 <0>         0.0248
     20 O4         -3.1334   -2.6024    8.2045 O.2       1 <0>        -0.1535
     21 O5         -2.1291   -2.8632    6.3856 O.3       1 <0>        -0.1259
     22 C14         0.9558   -4.9697   -1.0350 C.3       1 <0>        -0.0504
     23 C15         0.7625   -4.6834   -2.5265 C.3       1 <0>        -0.1100
     24 C16         1.8804   -3.7768   -3.0521 C.3       1 <0>        -0.1258
     25 C17         1.7684   -2.4291   -2.3544 C.2       1 <0>         0.2127
     26 N4          1.9138   -1.3047   -2.9849 N.2       1 <0>        -0.2815
     27 N5          2.1850   -1.3024   -4.3594 N.pl3     1 <0>        -0.5378
     28 C18         2.3361   -0.1343   -5.0145 C.2       1 <0>         0.6044
     29 S1          2.6676   -0.1314   -6.6941 S.2       1 <0>        -0.6190
     30 N6          2.2261    1.0316   -4.3473 N.pl3     1 <0>        -0.7840
     31 H1          2.9446    0.0854    0.0167 H         1 <0>         0.0808
     32 H2          1.5870    0.2644   -1.1205 H         1 <0>         0.0777
     33 H3          1.3372    0.5587    0.6171 H         1 <0>         0.0909
     34 H4          0.5303   -3.1166    3.5655 H         1 <0>         0.4401
     35 H5          0.8250   -0.5982    4.9849 H         1 <0>         0.4347
     36 H6          2.1879   -0.8209    7.2456 H         1 <0>         0.1553
     37 H7          2.0200    0.2715    9.4426 H         1 <0>         0.1545
     38 H8         -0.0618    0.1138   10.7442 H         1 <0>         0.1565
     39 H9         -1.9864   -1.1355    9.8578 H         1 <0>         0.1635
     40 H10         1.8506   -5.5760   -0.8941 H         1 <0>         0.1087
     41 H11         0.0882   -5.5073   -0.6526 H         1 <0>         0.1061
     42 H12         0.7741   -5.6240   -3.0772 H         1 <0>         0.0997
     43 H13        -0.1988   -4.1920   -2.6764 H         1 <0>         0.0789
     44 H14         2.8500   -4.2243   -2.8336 H         1 <0>         0.1069
     45 H15         1.7704   -3.6438   -4.1284 H         1 <0>         0.0859
     46 H16         2.2641   -2.1415   -4.8396 H         1 <0>         0.4177
     47 H17         2.0383    1.0300   -3.3957 H         1 <0>         0.4078
     48 H18         2.3349    1.8723   -4.8188 H         1 <0>         0.4326
@<TRIPOS>BOND
     1    1    2 1
     2    1   31 1
     3    1   32 1
     4    1   33 1
     5    2    6 2
     6    2    3 1
     7    3   25 1
     8    3    4 2
     9    4    5 1
    10    4   22 1
    11    5    6 1
    12    6    7 1
    13    7    8 2
    14    7    9 am
    15    9   10 1
    16    9   34 1
    17   10   11 am
    18   10   35 1
    19   11   12 2
    20   11   13 1
    21   13   18 ar
    22   13   14 ar
    23   14   15 ar
    24   14   36 1
    25   15   16 ar
    26   15   37 1
    27   16   17 ar
    28   16   38 1
    29   17   18 ar
    30   17   39 1
    31   18   19 1
    32   19   20 2
    33   19   21 1
    34   22   23 1
    35   22   40 1
    36   22   41 1
    37   23   24 1
    38   23   42 1
    39   23   43 1
    40   24   25 1
    41   24   44 1
    42   24   45 1
    43   25   26 2
    44   26   27 1
    45   27   28 1
    46   27   46 1
    47   28   29 2
    48   28   30 1
    49   30   47 1
    50   30   48 1
@<TRIPOS>MOLECULE
ZINC63456325
   58    60     0     0     0
SMALL
USER_CHARGES

@<TRIPOS>ATOM
      1 C1         -1.1093    1.5800    0.1908 C.3       1 <0>        -0.1492
      2 C2         -0.9665    0.0572    0.1537 C.3       1 <0>        -0.0944
      3 C3         -2.3522   -0.5870    0.2293 C.3       1 <0>        -0.1113
      4 C4         -2.2093   -2.1099    0.1922 C.3       1 <0>        -0.1268
      5 C5         -1.3663   -2.5722    1.3824 C.3       1 <0>         0.1481
      6 C6          0.0194   -1.9280    1.3067 C.3       1 <0>        -0.1282
      7 C7         -0.1234   -0.4052    1.3438 C.3       1 <0>        -0.1120
      8 N1         -1.2296   -4.0304    1.3469 N.am      1 <0>        -0.7268
      9 C8         -0.9923   -4.7129    2.4845 C.2       1 <0>         0.5182
     10 O1         -0.8920   -4.1199    3.5377 O.2       1 <0>        -0.5195
     11 C9         -0.8516   -6.2129    2.4480 C.3       1 <0>         0.0602
     12 O2         -0.6058   -6.7006    3.7685 O.3       1 <0>        -0.2043
     13 N2         -0.4574   -8.1067    3.8448 N.2       1 <0>        -0.4419
     14 C10        -0.2292   -8.6765    4.9947 C.2       1 <0>         0.4780
     15 C11        -0.0085   -7.8500    6.1967 C.2       1 <0>        -0.3457
     16 C12         1.0538   -7.0112    6.3981 C.2       1 <0>         0.2782
     17 C13         0.8440   -6.3922    7.7518 C.3       1 <0>         0.1841
     18 C14         2.0296   -6.6979    8.6867 C.3       1 <0>        -0.1219
     19 C15         1.9380   -5.5604    9.7361 C.3       1 <0>        -0.1271
     20 C16         1.4940   -4.3263    8.9226 C.3       1 <0>        -0.1252
     21 C17         0.7881   -4.8616    7.6621 C.3       1 <0>        -0.1223
     22 N3         -0.3989   -6.9423    8.2821 N.am      1 <0>        -0.6119
     23 C18        -0.8941   -7.7921    7.3605 C.2       1 <0>         0.5770
     24 O3         -1.9280   -8.4229    7.4801 O.2       1 <0>        -0.5367
     25 C19        -1.0019   -6.6247    9.5789 C.3       1 <0>         0.1083
     26 N4          2.0895   -6.7840    5.5464 N.pl3     1 <0>        -0.8039
     27 N5         -0.1940  -10.0577    5.0882 N.pl3     1 <0>        -0.8242
     28 H1         -0.1221    2.0390    0.1369 H         1 <0>         0.0549
     29 H2         -1.7099    1.9094   -0.6571 H         1 <0>         0.0550
     30 H3         -1.5977    1.8766    1.1190 H         1 <0>         0.0551
     31 H4         -0.4781   -0.2394   -0.7746 H         1 <0>         0.0704
     32 H5         -2.8405   -0.2904    1.1576 H         1 <0>         0.0659
     33 H6         -2.9528   -0.2577   -0.6185 H         1 <0>         0.0685
     34 H7         -3.1965   -2.5688    0.2461 H         1 <0>         0.0699
     35 H8         -1.7210   -2.4065   -0.7360 H         1 <0>         0.0687
     36 H9         -1.8547   -2.2756    2.3106 H         1 <0>         0.0883
     37 H10         0.6200   -2.2574    2.1546 H         1 <0>         0.0665
     38 H11         0.5078   -2.2246    0.3785 H         1 <0>         0.0635
     39 H12         0.8638    0.0538    1.2899 H         1 <0>         0.0652
     40 H13        -0.6118   -0.1086    2.2721 H         1 <0>         0.0647
     41 H14        -1.3098   -4.5047    0.5045 H         1 <0>         0.4007
     42 H15        -1.7705   -6.6547    2.0626 H         1 <0>         0.0811
     43 H16        -0.0184   -6.4840    1.7996 H         1 <0>         0.0790
     44 H17         1.9070   -7.6718    9.1606 H         1 <0>         0.0820
     45 H18         2.9732   -6.6474    8.1434 H         1 <0>         0.0817
     46 H19         1.1960   -5.8025   10.4969 H         1 <0>         0.0733
     47 H20         2.9115   -5.3850   10.1940 H         1 <0>         0.0746
     48 H21         0.8028   -3.7212    9.5093 H         1 <0>         0.0708
     49 H22         2.3635   -3.7327    8.6401 H         1 <0>         0.0708
     50 H23         1.3093   -4.5199    6.7679 H         1 <0>         0.0794
     51 H24        -0.2487   -4.5256    7.6428 H         1 <0>         0.0828
     52 H25        -0.8201   -5.5767    9.8173 H         1 <0>         0.0716
     53 H26        -2.0758   -6.8062    9.5345 H         1 <0>         0.0802
     54 H27        -0.5585   -7.2549   10.3499 H         1 <0>         0.0576
     55 H28         2.1631   -7.2948    4.7251 H         1 <0>         0.4139
     56 H29         2.7546   -6.1111    5.7603 H         1 <0>         0.4085
     57 H30        -0.2666  -10.6000    4.2872 H         1 <0>         0.4038
     58 H31        -0.0968  -10.4828    5.9546 H         1 <0>         0.4130
@<TRIPOS>BOND
     1    1    2 1
     2    1   28 1
     3    1   29 1
     4    1   30 1
     5    2    7 1
     6    2    3 1
     7    2   31 1
     8    3    4 1
     9    3   32 1
    10    3   33 1
    11    4    5 1
    12    4   34 1
    13    4   35 1
    14    5    6 1
    15    5    8 1
    16    5   36 1
    17    6    7 1
    18    6   37 1
    19    6   38 1
    20    7   39 1
    21    7   40 1
    22    8    9 am
    23    8   41 1
    24    9   10 2
    25    9   11 1
    26   11   12 1
    27   11   42 1
    28   11   43 1
    29   12   13 1
    30   13   14 2
    31   14   15 1
    32   14   27 1
    33   15   23 1
    34   15   16 2
    35   16   17 1
    36   16   26 1
    37   17   21 1
    38   17   18 1
    39   17   22 1
    40   18   19 1
    41   18   44 1
    42   18   45 1
    43   19   20 1
    44   19   46 1
    45   19   47 1
    46   20   21 1
    47   20   48 1
    48   20   49 1
    49   21   50 1
    50   21   51 1
    51   22   23 am
    52   22   25 1
    53   23   24 2
    54   25   52 1
    55   25   53 1
    56   25   54 1
    57   26   55 1
    58   26   56 1
    59   27   57 1
    60   27   58 1
@<TRIPOS>MOLECULE
ZINC06509499
   43    45     0     0     0
SMALL
USER_CHARGES
2-[2-[3-(trifluoromethyl)phenyl]acetyl]amino-4,5,6,7-tetrahydrobenzothiophene-3-carboxamide
@<TRIPOS>ATOM
      1 C1          1.1748    1.7831    0.0004 C.ar      1 <0>        -0.1160
      2 C2          1.1561    3.1655    0.0076 C.ar      1 <0>        -0.0691
      3 C3         -0.0501    3.8402    0.0223 C.ar      1 <0>        -0.0768
      4 C4         -1.2379    3.1327    0.0299 C.ar      1 <0>        -0.0522
      5 C5         -1.2192    1.7508    0.0173 C.ar      1 <0>        -0.1802
      6 C6         -0.0126    1.0758    0.0080 C.ar      1 <0>        -0.0670
      7 C7         -2.5139    0.9796    0.0192 C.3       1 <0>         0.5083
      8 F1         -2.2397   -0.3922    0.0104 F         1 <0>        -0.1760
      9 F2         -3.2466    1.3013    1.1668 F         1 <0>        -0.1765
     10 F3         -3.2574    1.3138   -1.1177 F         1 <0>        -0.1747
     11 C8         -0.0705    5.3471    0.0297 C.3       1 <0>        -0.0950
     12 C9         -0.0909    5.8561   -1.3886 C.2       1 <0>         0.5079
     13 O1         -0.0891    5.0724   -2.3142 O.2       1 <0>        -0.4852
     14 N1         -0.1113    7.1822   -1.6284 N.am      1 <0>        -0.6216
     15 C10        -0.1300    7.6505   -2.9334 C.2       1 <0>         0.0710
     16 C11        -0.1578    8.9649   -3.3775 C.2       1 <0>        -0.2278
     17 C12        -0.1683    9.1887   -4.8131 C.2       1 <0>        -0.0664
     18 C13        -0.1611    8.0698   -5.5697 C.2       1 <0>        -0.2074
     19 S1         -0.1321    6.7365   -4.4054 S.3       1 <0>         0.2309
     20 C14        -0.1752    7.9906   -7.0651 C.3       1 <0>        -0.0366
     21 C15        -0.5769    9.3656   -7.6186 C.3       1 <0>        -0.1142
     22 C16         0.2526   10.4427   -6.9136 C.3       1 <0>        -0.1197
     23 C17        -0.1919   10.5702   -5.4554 C.3       1 <0>        -0.0613
     24 C18        -0.1714   10.0864   -2.4330 C.2       1 <0>         0.5847
     25 O2          0.8768   10.5717   -2.0494 O.2       1 <0>        -0.5336
     26 N2         -1.3446   10.5799   -1.9897 N.am      1 <0>        -0.8477
     27 H1          2.1173    1.2559   -0.0114 H         1 <0>         0.1386
     28 H2          2.0839    3.7182    0.0014 H         1 <0>         0.1327
     29 H3         -2.1804    3.6599    0.0410 H         1 <0>         0.1326
     30 H4          0.0021   -0.0041    0.0020 H         1 <0>         0.1406
     31 H5         -0.9604    5.6958    0.5537 H         1 <0>         0.1160
     32 H6          0.8193    5.7200    0.5368 H         1 <0>         0.1179
     33 H7         -0.1128    7.8090   -0.8881 H         1 <0>         0.4200
     34 H8          0.8176    7.7245   -7.4281 H         1 <0>         0.0829
     35 H9         -0.8970    7.2397   -7.3863 H         1 <0>         0.0815
     36 H10        -0.3832    9.3987   -8.6907 H         1 <0>         0.0743
     37 H11        -1.6370    9.5385   -7.4333 H         1 <0>         0.0682
     38 H12         1.3069   10.1681   -6.9480 H         1 <0>         0.0676
     39 H13         0.1105   11.3979   -7.4191 H         1 <0>         0.0706
     40 H14         0.4897   11.2329   -4.9222 H         1 <0>         0.0751
     41 H15        -1.2025   10.9768   -5.4158 H         1 <0>         0.0766
     42 H16        -2.1800   10.1931   -2.2954 H         1 <0>         0.4037
     43 H17        -1.3536   11.3218   -1.3648 H         1 <0>         0.4035
@<TRIPOS>BOND
     1    1    6 ar
     2    1    2 ar
     3    1   27 1
     4    2    3 ar
     5    2   28 1
     6    3    4 ar
     7    3   11 1
     8    4    5 ar
     9    4   29 1
    10    5    6 ar
    11    5    7 1
    12    6   30 1
    13    7    8 1
    14    7    9 1
    15    7   10 1
    16   11   12 1
    17   11   31 1
    18   11   32 1
    19   12   13 2
    20   12   14 am
    21   14   15 1
    22   14   33 1
    23   15   19 1
    24   15   16 2
    25   16   17 1
    26   16   24 1
    27   17   23 1
    28   17   18 2
    29   18   19 1
    30   18   20 1
    31   20   21 1
    32   20   34 1
    33   20   35 1
    34   21   22 1
    35   21   36 1
    36   21   37 1
    37   22   23 1
    38   22   38 1
    39   22   39 1
    40   23   40 1
    41   23   41 1
    42   24   25 2
    43   24   26 am
    44   26   42 1
    45   26   43 1
@<TRIPOS>MOLECULE
ZINC20682342
   58    62     0     0     0
SMALL
USER_CHARGES
[(3aS,4S,9bS)-4-(2,4-dihydroxyphenyl)-3a,4,5,9b-tetrahydro-3H-cyclopenta[c]quinolin-8-yl]-(4-methyl-1-piperidyl)methanone
@<TRIPOS>ATOM
      1 C1        -11.1250    1.6555    3.2779 C.3       1 <0>        -0.1489
      2 C2        -10.0309    2.7223    3.2022 C.3       1 <0>        -0.0934
      3 C3         -9.9402    3.2590    1.7719 C.3       1 <0>        -0.1304
      4 C4         -8.8676    4.3509    1.7075 C.3       1 <0>         0.1087
      5 N1         -7.6065    3.8062    2.2286 N.am      1 <0>        -0.6073
      6 C5         -7.6034    3.1791    3.5574 C.3       1 <0>         0.0956
      7 C6         -8.6890    2.1054    3.6033 C.3       1 <0>        -0.1308
      8 C7         -6.4752    3.8754    1.4994 C.2       1 <0>         0.5690
      9 O1         -6.4760    4.4529    0.4293 O.2       1 <0>        -0.5406
     10 C8         -5.2359    3.2505    1.9993 C.ar      1 <0>        -0.1884
     11 C9         -4.7882    3.5175    3.2967 C.ar      1 <0>        -0.0455
     12 C10        -3.6300    2.9383    3.7570 C.ar      1 <0>        -0.2019
     13 C11        -2.8932    2.0828    2.9407 C.ar      1 <0>         0.2486
     14 C12        -3.3342    1.8196    1.6417 C.ar      1 <0>        -0.1563
     15 C13        -4.5035    2.3882    1.1788 C.ar      1 <0>        -0.0181
     16 C14        -2.5465    0.8751    0.8197 C.3       1 <0>        -0.0124
     17 H1         -3.0859   -0.0557    1.0491 H         1 <0>         0.0954
     18 C15        -2.5512    0.9322   -0.6645 C.2       1 <0>        -0.1685
     19 C16        -1.3619    0.5422   -1.1074 C.2       1 <0>        -0.1810
     20 C17        -0.4436    0.2209    0.0734 C.3       1 <0>        -0.0750
     21 C18        -1.0457    1.0959    1.1807 C.3       1 <0>        -0.0721
     22 H2         -0.5753    2.0899    1.2052 H         1 <0>         0.0994
     23 C19        -0.8975    0.6058    2.6099 C.3       1 <0>         0.2194
     24 H3         -1.2363   -0.4328    2.7385 H         1 <0>         0.0786
     25 N2         -1.7144    1.5239    3.4327 N.pl3     1 <0>        -0.7493
     26 C20         0.5472    0.6677    3.0343 C.ar      1 <0>        -0.1827
     27 C21         0.9958    1.7237    3.8048 C.ar      1 <0>        -0.0328
     28 C22         2.3185    1.7808    4.1995 C.ar      1 <0>        -0.2021
     29 C23         3.2026    0.7827    3.8140 C.ar      1 <0>         0.1985
     30 C24         2.7563   -0.2747    3.0368 C.ar      1 <0>        -0.3103
     31 C25         1.4271   -0.3325    2.6464 C.ar      1 <0>         0.2130
     32 O2          0.9867   -1.3677    1.8841 O.3       1 <0>        -0.4992
     33 O3          4.5047    0.8419    4.1986 O.3       1 <0>        -0.5070
     34 H4        -12.0897    2.0986    2.9897 H         1 <0>         0.0560
     35 H5        -11.1910    1.2703    4.3061 H         1 <0>         0.0559
     36 H6        -10.8809    0.8306    2.5923 H         1 <0>         0.0546
     37 H7        -10.2743    3.5472    3.8879 H         1 <0>         0.0722
     38 H8         -9.6725    2.4393    1.0890 H         1 <0>         0.0669
     39 H9        -10.9124    3.6801    1.4759 H         1 <0>         0.0761
     40 H10        -8.7326    4.6711    0.6638 H         1 <0>         0.0935
     41 H11        -9.1826    5.2107    2.3170 H         1 <0>         0.0672
     42 H12        -6.6208    2.7213    3.7445 H         1 <0>         0.0987
     43 H13        -7.8041    3.9424    4.3236 H         1 <0>         0.0686
     44 H14        -8.7621    1.7001    4.6233 H         1 <0>         0.0760
     45 H15        -8.4343    1.2952    2.9042 H         1 <0>         0.0679
     46 H16        -5.3525    4.1792    3.9371 H         1 <0>         0.1253
     47 H17        -3.2880    3.1484    4.7597 H         1 <0>         0.1251
     48 H18        -4.8458    2.1792    0.1760 H         1 <0>         0.1247
     49 H19        -3.3345    1.2267   -1.3785 H         1 <0>         0.1306
     50 H20        -1.1672    0.4917   -2.1889 H         1 <0>         0.1278
     51 H21        -0.4943   -0.8554    0.2950 H         1 <0>         0.0921
     52 H22         0.5909    0.4944   -0.1816 H         1 <0>         0.0651
     53 H23        -1.3955    1.7780    4.4543 H         1 <0>         0.4184
     54 H24         0.3103    2.5034    4.1023 H         1 <0>         0.1349
     55 H25         2.6658    2.6049    4.8050 H         1 <0>         0.1297
     56 H26         3.4428   -1.0521    2.7356 H         1 <0>         0.1316
     57 H27         1.6847   -2.1604    1.5769 H         1 <0>         0.4336
     58 H28         5.2050    0.0507    3.8928 H         1 <0>         0.4350
@<TRIPOS>BOND
     1    1    2 1
     2    1   34 1
     3    1   35 1
     4    1   36 1
     5    2    7 1
     6    2    3 1
     7    2   37 1
     8    3    4 1
     9    3   38 1
    10    3   39 1
    11    4    5 1
    12    4   40 1
    13    4   41 1
    14    5    6 1
    15    5    8 am
    16    6    7 1
    17    6   42 1
    18    6   43 1
    19    7   44 1
    20    7   45 1
    21    8    9 2
    22    8   10 1
    23   10   15 ar
    24   10   11 ar
    25   11   12 ar
    26   11   46 1
    27   12   13 ar
    28   12   47 1
    29   13   25 1
    30   13   14 ar
    31   14   15 ar
    32   14   16 1
    33   15   48 1
    34   16   17 1
    35   16   21 1
    36   16   18 1
    37   18   19 2
    38   18   49 1
    39   19   20 1
    40   19   50 1
    41   20   21 1
    42   20   51 1
    43   20   52 1
    44   21   22 1
    45   21   23 1
    46   23   24 1
    47   23   25 1
    48   23   26 1
    49   25   53 1
    50   26   31 ar
    51   26   27 ar
    52   27   28 ar
    53   27   54 1
    54   28   29 ar
    55   28   55 1
    56   29   30 ar
    57   29   33 1
    58   30   31 ar
    59   30   56 1
    60   31   32 1
    61   32   57 1
    62   33   58 1
@<TRIPOS>MOLECULE
ZINC37067282
   39    41     0     0     0
SMALL
USER_CHARGES

@<TRIPOS>ATOM
      1 C1          1.0488    1.5840    0.2972 C.3       1 <0>        -0.1130
      2 C2          0.2380    2.1744    1.4220 C.ar      1 <0>        -0.1236
      3 C3         -0.0333    3.5285    1.4418 C.ar      1 <0>        -0.0665
      4 C4         -0.7775    4.0712    2.4741 C.ar      1 <0>        -0.1143
      5 C5         -1.2523    3.2597    3.4895 C.ar      1 <0>        -0.0742
      6 C6         -0.9843    1.9052    3.4750 C.ar      1 <0>        -0.1207
      7 C7         -0.2420    1.3564    2.4367 C.ar      1 <0>         0.1941
      8 N1          0.0256   -0.0154    2.4161 N.pl3     1 <0>        -0.6610
      9 C8          0.1517   -0.7188    3.6126 C.ar      1 <0>         0.3649
     10 C9          0.2798   -2.1016    3.5853 C.ar      1 <0>        -0.2035
     11 C10         0.4052   -2.7941    4.7787 C.ar      1 <0>        -0.0922
     12 C11         0.3981   -2.0734    5.9680 C.ar      1 <0>         0.1204
     13 C12         0.2660   -0.6875    5.9208 C.ar      1 <0>         0.2989
     14 N2          0.1535   -0.0600    4.7620 N.ar      1 <0>        -0.5399
     15 O1          0.2573    0.0266    7.0756 O.3       1 <0>        -0.3053
     16 C13         0.1188    1.4443    6.9607 C.3       1 <0>         0.1090
     17 C14         0.1302    2.0726    8.3557 C.3       1 <0>        -0.1616
     18 C15        -1.1371    2.7964    8.8149 C.3       1 <0>        -0.1752
     19 C16         0.1106    3.6000    8.4427 C.3       1 <0>        -0.1673
     20 N3          0.5220   -2.7338    7.1996 N.pl3     1 <0>        -0.8711
     21 Br1        -1.1462    5.9258    2.4979 Br        1 <0>        -0.0567
     22 H1          0.3828    1.2812   -0.5108 H         1 <0>         0.0718
     23 H2          1.7535    2.3288   -0.0726 H         1 <0>         0.0724
     24 H3          1.5966    0.7148    0.6615 H         1 <0>         0.0655
     25 H4          0.3362    4.1644    0.6509 H         1 <0>         0.1329
     26 H5         -1.8327    3.6862    4.2942 H         1 <0>         0.1299
     27 H6         -1.3551    1.2724    4.2677 H         1 <0>         0.1425
     28 H7          0.1236   -0.4777    1.5690 H         1 <0>         0.4194
     29 H8          0.2813   -2.6312    2.6441 H         1 <0>         0.1365
     30 H9          0.5059   -3.8694    4.7852 H         1 <0>         0.1427
     31 H10         0.9469    1.8440    6.3754 H         1 <0>         0.0693
     32 H11        -0.8231    1.6782    6.4645 H         1 <0>         0.0658
     33 H12         0.7032    1.5328    9.1097 H         1 <0>         0.1142
     34 H13        -1.9790    2.8249    8.1232 H         1 <0>         0.0962
     35 H14        -1.3982    2.7328    9.8712 H         1 <0>         0.0977
     36 H15         0.6702    4.0651    9.2542 H         1 <0>         0.1005
     37 H16         0.0894    4.1572    7.5061 H         1 <0>         0.0982
     38 H17         0.6134   -3.6992    7.2253 H         1 <0>         0.3987
     39 H18         0.5163   -2.2251    8.0255 H         1 <0>         0.4041
@<TRIPOS>BOND
     1    1    2 1
     2    1   22 1
     3    1   23 1
     4    1   24 1
     5    2    7 ar
     6    2    3 ar
     7    3    4 ar
     8    3   25 1
     9    4    5 ar
    10    4   21 1
    11    5    6 ar
    12    5   26 1
    13    6    7 ar
    14    6   27 1
    15    7    8 1
    16    8    9 1
    17    8   28 1
    18    9   14 ar
    19    9   10 ar
    20   10   11 ar
    21   10   29 1
    22   11   12 ar
    23   11   30 1
    24   12   13 ar
    25   12   20 1
    26   13   14 ar
    27   13   15 1
    28   15   16 1
    29   16   17 1
    30   16   31 1
    31   16   32 1
    32   17   19 1
    33   17   18 1
    34   17   33 1
    35   18   19 1
    36   18   34 1
    37   18   35 1
    38   19   36 1
    39   19   37 1
    40   20   38 1
    41   20   39 1
@<TRIPOS>MOLECULE
ZINC42652397
   38    40     0     0     0
SMALL
USER_CHARGES

@<TRIPOS>ATOM
      1 C1         -0.0167    1.3798    0.0096 C.ar      1 <0>        -0.0798
      2 C2          1.1680    2.0953    0.0022 C.ar      1 <0>        -0.1294
      3 C3          2.3774    1.4332   -0.0134 C.ar      1 <0>        -0.0493
      4 C4          2.4048    0.0349   -0.0211 C.ar      1 <0>        -0.1555
      5 C5          1.2034   -0.6808   -0.0130 C.ar      1 <0>        -0.0727
      6 C6          0.0021   -0.0041    0.0020 C.ar      1 <0>        -0.1269
      7 C7          3.6913   -0.6795   -0.0381 C.2       1 <0>         0.3871
      8 O1          4.7311   -0.0559   -0.0455 O.2       1 <0>        -0.4006
      9 C8          3.7163   -2.1863   -0.0464 C.3       1 <0>        -0.1485
     10 H1          2.8755   -2.5631   -0.6287 H         1 <0>         0.1536
     11 C9          3.6232   -2.7104    1.3906 C.3       1 <0>         0.2426
     12 H2          3.5672   -3.7989    1.3784 H         1 <0>         0.1332
     13 N1          4.8125   -2.2900    2.1332 N.pl3     1 <0>        -0.6692
     14 C10         5.9872   -2.0940    1.5161 C.2       1 <0>         0.6013
     15 S1          7.3385   -1.6174    2.4530 S.2       1 <0>        -0.6042
     16 N2          6.1453   -2.2572    0.1941 N.pl3     1 <0>        -0.6741
     17 C11         5.0305   -2.6758   -0.6641 C.3       1 <0>         0.3106
     18 C12         5.1961   -2.0708   -2.0596 C.3       1 <0>         0.4275
     19 F1          5.2181   -0.6753   -1.9633 F         1 <0>        -0.1486
     20 F2          6.3962   -2.5183   -2.6225 F         1 <0>        -0.1696
     21 F3          4.1256   -2.4656   -2.8691 F         1 <0>        -0.1598
     22 O2          5.0116   -4.1015   -0.7595 O.3       1 <0>        -0.5225
     23 C13         2.3905   -2.1501    2.0521 C.2       1 <0>        -0.2179
     24 C14         1.1865   -2.7397    2.2526 C.2       1 <0>        -0.1076
     25 C15         0.1889   -2.0267    2.8906 C.2       1 <0>        -0.1662
     26 C16         0.4441   -0.7590    3.2970 C.2       1 <0>        -0.1506
     27 S2          2.1395   -0.5404    2.7822 S.3       1 <0>         0.0952
     28 H3         -0.9607    1.9041    0.0260 H         1 <0>         0.1285
     29 H4          1.1452    3.1750    0.0081 H         1 <0>         0.1312
     30 H5          3.3011    1.9929   -0.0199 H         1 <0>         0.1342
     31 H6          1.2164   -1.7607   -0.0192 H         1 <0>         0.1286
     32 H7         -0.9266   -0.5553    0.0082 H         1 <0>         0.1292
     33 H8          4.7497   -2.1499    3.0910 H         1 <0>         0.4394
     34 H9          7.0147   -2.0945   -0.2041 H         1 <0>         0.4380
     35 H10         5.8143   -4.4807   -1.1427 H         1 <0>         0.4038
     36 H11         1.0092   -3.7513    1.9184 H         1 <0>         0.1403
     37 H12        -0.7795   -2.4729    3.0624 H         1 <0>         0.1402
     38 H13        -0.2078   -0.0632    3.8042 H         1 <0>         0.1885
@<TRIPOS>BOND
     1    1    6 ar
     2    1    2 ar
     3    1   28 1
     4    2    3 ar
     5    2   29 1
     6    3    4 ar
     7    3   30 1
     8    4    5 ar
     9    4    7 1
    10    5    6 ar
    11    5   31 1
    12    6   32 1
    13    7    8 2
    14    7    9 1
    15    9   10 1
    16    9   17 1
    17    9   11 1
    18   11   12 1
    19   11   13 1
    20   11   23 1
    21   13   14 1
    22   13   33 1
    23   14   15 2
    24   14   16 1
    25   16   17 1
    26   16   34 1
    27   17   18 1
    28   17   22 1
    29   18   19 1
    30   18   20 1
    31   18   21 1
    32   22   35 1
    33   23   27 1
    34   23   24 2
    35   24   25 1
    36   24   36 1
    37   25   26 2
    38   25   37 1
    39   26   27 1
    40   26   38 1
@<TRIPOS>MOLECULE
ZINC57006016
   45    47     0     0     0
SMALL
USER_CHARGES

@<TRIPOS>ATOM
      1 C1          0.1139    1.5655   -0.1055 C.3       1 <0>        -0.1630
      2 C2          0.0096    0.0393   -0.1327 C.3       1 <0>         0.1838
      3 H1          0.5844   -0.3789    0.6936 H         1 <0>         0.1089
      4 C3         -1.4349   -0.3680    0.0034 C.ar      1 <0>        -0.0543
      5 C4         -2.4380    0.5555   -0.2256 C.ar      1 <0>        -0.1067
      6 C5         -3.7628    0.1820   -0.1008 C.ar      1 <0>        -0.0879
      7 C6         -4.0850   -1.1153    0.2526 C.ar      1 <0>        -0.1137
      8 C7         -3.0822   -2.0387    0.4807 C.ar      1 <0>        -0.0741
      9 C8         -1.7571   -1.6662    0.3516 C.ar      1 <0>        -0.1661
     10 C9         -0.6638   -2.6744    0.5952 C.3       1 <0>         0.5052
     11 F1         -1.2311   -3.8928    0.9833 F         1 <0>        -0.1784
     12 F2          0.0730   -2.8564   -0.5801 F         1 <0>        -0.1679
     13 F3          0.1817   -2.2098    1.6084 F         1 <0>        -0.1724
     14 N1          0.5414   -0.4640   -1.4016 N.am      1 <0>        -0.7359
     15 C10         1.8664   -0.6653   -1.5444 C.2       1 <0>         0.7129
     16 O1          2.6203   -0.4292   -0.6202 O.2       1 <0>        -0.5874
     17 N2          2.3557   -1.1283   -2.7118 N.am      1 <0>        -0.7192
     18 C11         3.7959   -1.3471   -2.8671 C.3       1 <0>         0.2141
     19 H2          4.2306   -1.6822   -1.9254 H         1 <0>         0.1016
     20 C12         4.4726   -0.0767   -3.3354 C.ar      1 <0>        -0.1142
     21 C13         4.8327    1.0604   -2.6314 C.ar      1 <0>        -0.0793
     22 C14         5.4488    2.1129   -3.2793 C.ar      1 <0>        -0.1240
     23 C15         5.7078    2.0321   -4.6350 C.ar      1 <0>        -0.1096
     24 C16         5.3500    0.8989   -5.3386 C.ar      1 <0>        -0.1122
     25 C17         4.7316   -0.1575   -4.6907 C.ar      1 <0>        -0.0874
     26 C18         4.2465   -1.4878   -5.2259 C.3       1 <0>        -0.1163
     27 C19         4.0633   -2.3834   -3.9792 C.3       1 <0>         0.0980
     28 H3          4.9714   -2.9494   -3.7712 H         1 <0>         0.0861
     29 O2          2.9439   -3.2572   -4.1391 O.3       1 <0>        -0.5516
     30 H4          1.1639    1.8576   -0.0868 H         1 <0>         0.0708
     31 H5         -0.3622    1.9781   -0.9949 H         1 <0>         0.0618
     32 H6         -0.3855    1.9480    0.7846 H         1 <0>         0.0702
     33 H7         -2.1864    1.5688   -0.5017 H         1 <0>         0.1414
     34 H8         -4.5464    0.9035   -0.2790 H         1 <0>         0.1355
     35 H9         -5.1202   -1.4070    0.3508 H         1 <0>         0.1370
     36 H10        -3.3339   -3.0519    0.7571 H         1 <0>         0.1402
     37 H11        -0.0600   -0.6524   -2.1389 H         1 <0>         0.3965
     38 H12         1.7542   -1.3167   -3.4491 H         1 <0>         0.4016
     39 H13         4.6307    1.1243   -1.5724 H         1 <0>         0.1271
     40 H14         5.7277    2.9985   -2.7276 H         1 <0>         0.1251
     41 H15         6.1893    2.8544   -5.1433 H         1 <0>         0.1251
     42 H16         5.5523    0.8366   -6.3976 H         1 <0>         0.1206
     43 H17         3.2962   -1.3628   -5.7449 H         1 <0>         0.0905
     44 H18         4.9901   -1.9198   -5.8956 H         1 <0>         0.0823
     45 H19         3.0628   -3.9269   -4.8265 H         1 <0>         0.3854
@<TRIPOS>BOND
     1    1    2 1
     2    1   30 1
     3    1   31 1
     4    1   32 1
     5    2    3 1
     6    2    4 1
     7    2   14 1
     8    4    9 ar
     9    4    5 ar
    10    5    6 ar
    11    5   33 1
    12    6    7 ar
    13    6   34 1
    14    7    8 ar
    15    7   35 1
    16    8    9 ar
    17    8   36 1
    18    9   10 1
    19   10   11 1
    20   10   12 1
    21   10   13 1
    22   14   15 am
    23   14   37 1
    24   15   16 2
    25   15   17 am
    26   17   18 1
    27   17   38 1
    28   18   19 1
    29   18   27 1
    30   18   20 1
    31   20   25 ar
    32   20   21 ar
    33   21   22 ar
    34   21   39 1
    35   22   23 ar
    36   22   40 1
    37   23   24 ar
    38   23   41 1
    39   24   25 ar
    40   24   42 1
    41   25   26 1
    42   26   27 1
    43   26   43 1
    44   26   44 1
    45   27   28 1
    46   27   29 1
    47   29   45 1
@<TRIPOS>MOLECULE
ZINC13639680
   39    42     0     0     0
SMALL
USER_CHARGES
(3aR,4R,9bS)-4-(2,4-dihydroxyphenyl)-3a,4,5,9b-tetrahydro-3H-cyclopenta[c]quinoline-8-carbonitrile
@<TRIPOS>ATOM
      1 C1         -3.8502    3.2680    0.6466 C.ar      1 <0>        -0.0294
      2 C2         -3.4500    2.2260   -0.1583 C.ar      1 <0>        -0.1907
      3 C3         -2.7845    1.1326    0.3907 C.ar      1 <0>         0.2431
      4 C4         -2.5189    1.0745    1.7506 C.ar      1 <0>        -0.1300
      5 C5         -2.9200    2.1211    2.5622 C.ar      1 <0>        -0.0238
      6 C6         -3.5849    3.2209    2.0183 C.ar      1 <0>        -0.0805
      7 C7         -3.9946    4.3009    2.8647 C.1       1 <0>         0.2576
      8 N1         -4.3197    5.1576    3.5362 N.1       1 <0>        -0.4278
      9 C8         -1.8079   -0.0849    2.3954 C.3       1 <0>        -0.0112
     10 H1         -0.8683    0.2264    2.8519 H         1 <0>         0.0897
     11 C9         -2.7510   -0.6807    3.4318 C.2       1 <0>        -0.1617
     12 C10        -3.3922   -1.7066    2.9305 C.2       1 <0>        -0.1588
     13 C11        -2.9694   -1.9459    1.4922 C.3       1 <0>        -0.0947
     14 C12        -1.5874   -1.2542    1.4188 C.3       1 <0>        -0.0936
     15 H2         -0.8006   -1.9211    1.7712 H         1 <0>         0.1033
     16 C13        -1.2930   -0.7746    0.0098 C.3       1 <0>         0.2132
     17 H3         -1.2085   -1.6336   -0.6559 H         1 <0>         0.1008
     18 N2         -2.3817    0.0946   -0.4501 N.pl3     1 <0>        -0.7397
     19 C14         0.0021   -0.0041    0.0020 C.ar      1 <0>        -0.1357
     20 C15        -0.0166    1.3772   -0.0365 C.ar      1 <0>        -0.0757
     21 C16         1.1689    2.0865   -0.0441 C.ar      1 <0>        -0.1520
     22 C17         2.3821    1.4129   -0.0132 C.ar      1 <0>         0.1235
     23 C18         2.4035    0.0275    0.0254 C.ar      1 <0>        -0.1724
     24 C19         1.2123   -0.6820    0.0331 C.ar      1 <0>         0.1307
     25 O1          1.2300   -2.0403    0.0714 O.3       1 <0>        -0.4923
     26 O2          3.5480    2.1112   -0.0203 O.3       1 <0>        -0.4971
     27 H4         -4.3662    4.1163    0.2215 H         1 <0>         0.1333
     28 H5         -3.6523    2.2563   -1.2187 H         1 <0>         0.1341
     29 H6         -2.7172    2.0867    3.6225 H         1 <0>         0.1302
     30 H7         -2.8737   -0.3097    4.4387 H         1 <0>         0.1268
     31 H8         -4.1195   -2.2994    3.4653 H         1 <0>         0.1258
     32 H9         -3.6714   -1.4796    0.8010 H         1 <0>         0.0822
     33 H10        -2.8784   -3.0124    1.2864 H         1 <0>         0.0713
     34 H11        -2.8073   -0.0476   -1.3101 H         1 <0>         0.4106
     35 H12        -0.9596    1.9030   -0.0652 H         1 <0>         0.1397
     36 H13         1.1517    3.1659   -0.0746 H         1 <0>         0.1311
     37 H14         3.3465   -0.4984    0.0492 H         1 <0>         0.1356
     38 H15         1.2439   -2.4583   -0.8005 H         1 <0>         0.3911
     39 H16         3.8946    2.2887   -0.9054 H         1 <0>         0.3933
@<TRIPOS>BOND
     1    1    6 ar
     2    1    2 ar
     3    1   27 1
     4    2    3 ar
     5    2   28 1
     6    3   18 1
     7    3    4 ar
     8    4    5 ar
     9    4    9 1
    10    5    6 ar
    11    5   29 1
    12    6    7 1
    13    7    8 3
    14    9   10 1
    15    9   14 1
    16    9   11 1
    17   11   12 2
    18   11   30 1
    19   12   13 1
    20   12   31 1
    21   13   14 1
    22   13   32 1
    23   13   33 1
    24   14   15 1
    25   14   16 1
    26   16   17 1
    27   16   18 1
    28   16   19 1
    29   18   34 1
    30   19   24 ar
    31   19   20 ar
    32   20   21 ar
    33   20   35 1
    34   21   22 ar
    35   21   36 1
    36   22   23 ar
    37   22   26 1
    38   23   24 ar
    39   23   37 1
    40   24   25 1
    41   25   38 1
    42   26   39 1
@<TRIPOS>MOLECULE
ZINC13547198
   47    49     0     0     0
SMALL
USER_CHARGES

@<TRIPOS>ATOM
      1 C1         -0.5524    1.2057   -0.2986 C.3       1 <0>        -0.1233
      2 C2          0.8676    1.7505   -0.1322 C.3       1 <0>        -0.1159
      3 C3          1.7176    1.3346   -1.3345 C.3       1 <0>        -0.1284
      4 C4          1.7641   -0.1922   -1.4225 C.3       1 <0>         0.1486
      5 C5          0.3441   -0.7370   -1.5889 C.3       1 <0>        -0.1295
      6 C6         -0.5059   -0.3211   -0.3866 C.3       1 <0>        -0.1173
      7 N1          2.5780   -0.5905   -2.5737 N.am      1 <0>        -0.7224
      8 C7          3.1808   -1.7958   -2.5881 C.2       1 <0>         0.6293
      9 O1          3.0488   -2.5544   -1.6436 O.2       1 <0>        -0.5536
     10 C8          3.9649   -2.1795   -3.6973 C.2       1 <0>        -0.3981
     11 C9          4.6514   -3.3498   -3.9131 C.2       1 <0>         0.4667
     12 N2          5.3251   -3.4438   -5.0792 N.pl3     1 <0>        -0.4823
     13 C10         5.2952   -2.4178   -5.9525 C.2       1 <0>         0.1960
     14 S1          6.0624   -2.3059   -7.4788 S.2       1 <0>        -0.4342
     15 S2          4.3209   -1.2767   -5.1939 S.3       1 <0>         0.2479
     16 C11         6.0856   -4.6558   -5.3938 C.3       1 <0>         0.1223
     17 C12         7.5589   -4.2954   -5.5950 C.3       1 <0>        -0.1491
     18 C13         8.3533   -5.5611   -5.9235 C.3       1 <0>        -0.1095
     19 C14         7.8027   -6.1906   -7.2047 C.3       1 <0>        -0.1240
     20 C15         6.3294   -6.5510   -7.0036 C.3       1 <0>        -0.1095
     21 C16         5.5350   -5.2853   -6.6750 C.3       1 <0>        -0.1494
     22 N3          4.6527   -4.3716   -2.9895 N.pl3     1 <0>        -0.8127
     23 H1         -1.1579    1.5020    0.5579 H         1 <0>         0.0646
     24 H2         -0.9917    1.6090   -1.2111 H         1 <0>         0.0633
     25 H3          0.8345    2.8382   -0.0696 H         1 <0>         0.0684
     26 H4          1.3069    1.3472    0.7802 H         1 <0>         0.0655
     27 H5          1.2783    1.7378   -2.2469 H         1 <0>         0.0694
     28 H6          2.7292    1.7227   -1.2160 H         1 <0>         0.0701
     29 H7          2.2034   -0.5955   -0.5101 H         1 <0>         0.0912
     30 H8         -0.0952   -0.3337   -2.5013 H         1 <0>         0.0642
     31 H9          0.3773   -1.8247   -1.6515 H         1 <0>         0.0676
     32 H10        -0.0666   -0.7243    0.5258 H         1 <0>         0.0645
     33 H11        -1.5175   -0.7092   -0.5051 H         1 <0>         0.0653
     34 H12         2.6830    0.0134   -3.3255 H         1 <0>         0.3983
     35 H13         5.9942   -5.3657   -4.5718 H         1 <0>         0.0934
     36 H14         7.6504   -3.5855   -6.4170 H         1 <0>         0.1137
     37 H15         7.9512   -3.8470   -4.6822 H         1 <0>         0.0632
     38 H16         9.4029   -5.3044   -6.0669 H         1 <0>         0.0733
     39 H17         8.2618   -6.2711   -5.1015 H         1 <0>         0.0598
     40 H18         7.8941   -5.4807   -8.0267 H         1 <0>         0.0727
     41 H19         8.3686   -7.0923   -7.4388 H         1 <0>         0.0667
     42 H20         5.9371   -6.9994   -7.9163 H         1 <0>         0.0733
     43 H21         6.2379   -7.2609   -6.1816 H         1 <0>         0.0599
     44 H22         4.4854   -5.5420   -6.5317 H         1 <0>         0.0631
     45 H23         5.6265   -4.5753   -7.4970 H         1 <0>         0.1130
     46 H24         4.2510   -4.2371   -2.1169 H         1 <0>         0.4392
     47 H25         5.0553   -5.2257   -3.2117 H         1 <0>         0.4045
@<TRIPOS>BOND
     1    1    6 1
     2    1    2 1
     3    1   23 1
     4    1   24 1
     5    2    3 1
     6    2   25 1
     7    2   26 1
     8    3    4 1
     9    3   27 1
    10    3   28 1
    11    4    5 1
    12    4    7 1
    13    4   29 1
    14    5    6 1
    15    5   30 1
    16    5   31 1
    17    6   32 1
    18    6   33 1
    19    7    8 am
    20    7   34 1
    21    8    9 2
    22    8   10 1
    23   10   15 1
    24   10   11 2
    25   11   12 1
    26   11   22 1
    27   12   13 1
    28   12   16 1
    29   13   14 2
    30   13   15 1
    31   16   21 1
    32   16   17 1
    33   16   35 1
    34   17   18 1
    35   17   36 1
    36   17   37 1
    37   18   19 1
    38   18   38 1
    39   18   39 1
    40   19   20 1
    41   19   40 1
    42   19   41 1
    43   20   21 1
    44   20   42 1
    45   20   43 1
    46   21   44 1
    47   21   45 1
    48   22   46 1
    49   22   47 1
@<TRIPOS>MOLECULE
ZINC43408910
   37    40     0     0     0
SMALL
USER_CHARGES

@<TRIPOS>ATOM
      1 C1         -0.0066    1.4132    0.0039 C.ar      1 <0>         0.0073
      2 C2          1.2109    2.0735   -0.0010 C.ar      1 <0>        -0.1858
      3 C3          2.3862    1.3430   -0.0101 C.ar      1 <0>         0.1865
      4 N1          2.3579    0.0196   -0.0140 N.ar      1 <0>        -0.4664
      5 C4          1.2246   -0.6603   -0.0093 C.ar      1 <0>         0.4275
      6 C5         -0.0090    0.0143   -0.0009 C.ar      1 <0>        -0.2058
      7 C6         -1.2763   -0.7357    0.0045 C.2       1 <0>         0.3961
      8 S1         -1.9578   -1.2756   -1.4703 S.2       1 <0>        -0.5210
      9 N2         -1.8998   -0.9970    1.1705 N.pl3     1 <0>        -0.7524
     10 N3          1.2522   -2.0450   -0.0138 N.pl3     1 <0>        -0.5982
     11 C7          2.4622   -2.7145   -0.1316 C.2       1 <0>         0.2877
     12 N4          3.6667   -2.2087   -0.2414 N.2       1 <0>        -0.5087
     13 C8          4.7556   -2.9834   -0.3483 C.2       1 <0>         0.0740
     14 C9          4.5090   -4.3135   -0.3355 C.2       1 <0>        -0.2564
     15 S2          2.7419   -4.3740   -0.1608 S.3       1 <0>         0.1376
     16 C10         5.7637   -5.1225   -0.4638 C.3       1 <0>        -0.0245
     17 C11         6.8203   -4.1240   -0.9885 C.3       1 <0>        -0.1138
     18 C12         6.2627   -2.7778   -0.4829 C.3       1 <0>        -0.0395
     19 C13         3.5705    2.2888   -0.0132 C.3       1 <0>        -0.0730
     20 C14         2.9975    3.6543   -0.4472 C.3       1 <0>        -0.1193
     21 C15         1.5242    3.5536    0.0016 C.3       1 <0>        -0.0726
     22 H1         -0.9341    1.9664    0.0156 H         1 <0>         0.1424
     23 H2         -1.5137   -0.6911    2.0061 H         1 <0>         0.4067
     24 H3         -2.7345   -1.4910    1.1741 H         1 <0>         0.4250
     25 H4          0.4259   -2.5469    0.0653 H         1 <0>         0.4328
     26 H5          6.0626   -5.5166    0.5075 H         1 <0>         0.0847
     27 H6          5.6210   -5.9345   -1.1768 H         1 <0>         0.0794
     28 H7          7.7990   -4.3281   -0.5544 H         1 <0>         0.0889
     29 H8          6.8670   -4.1423   -2.0774 H         1 <0>         0.0793
     30 H9          6.4724   -1.9882   -1.2044 H         1 <0>         0.0812
     31 H10         6.6972   -2.5296    0.4855 H         1 <0>         0.0860
     32 H11         4.0004    2.3595    0.9859 H         1 <0>         0.0947
     33 H12         4.3225    1.9506   -0.7261 H         1 <0>         0.0911
     34 H13         3.5049    4.4691    0.0692 H         1 <0>         0.0860
     35 H14         3.0657    3.7772   -1.5281 H         1 <0>         0.0783
     36 H15         0.8777    4.0784   -0.7018 H         1 <0>         0.0805
     37 H16         1.4052    3.9638    1.0044 H         1 <0>         0.0838
@<TRIPOS>BOND
     1    1    6 ar
     2    1    2 ar
     3    1   22 1
     4    2   21 1
     5    2    3 ar
     6    3    4 ar
     7    3   19 1
     8    4    5 ar
     9    5    6 ar
    10    5   10 1
    11    6    7 1
    12    7    8 2
    13    7    9 1
    14    9   23 1
    15    9   24 1
    16   10   11 1
    17   10   25 1
    18   11   15 1
    19   11   12 2
    20   12   13 1
    21   13   18 1
    22   13   14 2
    23   14   15 1
    24   14   16 1
    25   16   17 1
    26   16   26 1
    27   16   27 1
    28   17   18 1
    29   17   28 1
    30   17   29 1
    31   18   30 1
    32   18   31 1
    33   19   20 1
    34   19   32 1
    35   19   33 1
    36   20   21 1
    37   20   34 1
    38   20   35 1
    39   21   36 1
    40   21   37 1
@<TRIPOS>MOLECULE
ZINC54397484
   29    30     0     0     0
SMALL
USER_CHARGES

@<TRIPOS>ATOM
      1 C1          4.3827    1.2762    3.0596 C.3       1 <0>        -0.1169
      2 C2          4.0682   -0.0924    2.5128 C.ar      1 <0>        -0.1031
      3 C3          5.0066   -0.7669    1.7562 C.ar      1 <0>        -0.0902
      4 C4          4.7192   -2.0225    1.2540 C.ar      1 <0>        -0.1076
      5 C5          3.4909   -2.6079    1.5073 C.ar      1 <0>        -0.0729
      6 C6          2.5480   -1.9383    2.2634 C.ar      1 <0>        -0.1010
      7 C7          2.8365   -0.6790    2.7739 C.ar      1 <0>         0.1607
      8 N1          1.8872   -0.0012    3.5440 N.pl3     1 <0>        -0.6262
      9 C8          0.8770   -0.7062    4.1756 C.ar      1 <0>         0.3960
     10 C9         -0.1626   -0.0202    4.8272 C.ar      1 <0>        -0.0073
     11 N2         -1.1281   -0.7082    5.4308 N.ar      1 <0>        -0.3742
     12 C10        -1.1064   -2.0261    5.4158 C.ar      1 <0>        -0.0002
     13 C11        -0.0807   -2.7029    4.7730 C.ar      1 <0>         0.1344
     14 N3          0.8821   -2.0337    4.1645 N.ar      1 <0>        -0.4801
     15 C12        -0.1827    1.4544    4.8419 C.2       1 <0>         0.4095
     16 S1         -0.2085    2.3249    3.3680 S.2       1 <0>        -0.5190
     17 N4         -0.1808    2.1167    6.0157 N.pl3     1 <0>        -0.7367
     18 Br1         3.1027   -4.3253    0.8176 Br        1 <0>        -0.0458
     19 H1          4.8432    1.1777    4.0426 H         1 <0>         0.0749
     20 H2          5.0704    1.7874    2.3859 H         1 <0>         0.0790
     21 H3          3.4622    1.8535    3.1457 H         1 <0>         0.0615
     22 H4          5.9658   -0.3128    1.5564 H         1 <0>         0.1372
     23 H5          5.4546   -2.5476    0.6625 H         1 <0>         0.1345
     24 H6          1.5895   -2.3951    2.4607 H         1 <0>         0.1630
     25 H7          1.9362    0.9632    3.6359 H         1 <0>         0.4256
     26 H8         -1.8914   -2.5818    5.9071 H         1 <0>         0.1824
     27 H9         -0.0712   -3.7828    4.7663 H         1 <0>         0.1854
     28 H10        -0.1662    1.6235    6.8508 H         1 <0>         0.4095
     29 H11        -0.1940    3.0866    6.0254 H         1 <0>         0.4277
@<TRIPOS>BOND
     1    1    2 1
     2    1   19 1
     3    1   20 1
     4    1   21 1
     5    2    7 ar
     6    2    3 ar
     7    3    4 ar
     8    3   22 1
     9    4    5 ar
    10    4   23 1
    11    5    6 ar
    12    5   18 1
    13    6    7 ar
    14    6   24 1
    15    7    8 1
    16    8    9 1
    17    8   25 1
    18    9   14 ar
    19    9   10 ar
    20   10   11 ar
    21   10   15 1
    22   11   12 ar
    23   12   13 ar
    24   12   26 1
    25   13   14 ar
    26   13   27 1
    27   15   16 2
    28   15   17 1
    29   17   28 1
    30   17   29 1
@<TRIPOS>MOLECULE
ZINC62789632
   41    42     0     0     0
SMALL
USER_CHARGES

@<TRIPOS>ATOM
      1 C1         -0.4885    1.6124   -0.0760 C.3       1 <0>        -0.1515
      2 C2         -0.3802    0.0877   -0.0086 C.3       1 <0>        -0.1208
      3 C3          0.5659   -0.4053   -1.1053 C.3       1 <0>        -0.0747
      4 H1          0.2248   -0.0362   -2.0725 H         1 <0>         0.0830
      5 C4          1.9789    0.1134   -0.8310 C.3       1 <0>        -0.1148
      6 C5          2.9251   -0.3797   -1.9276 C.3       1 <0>        -0.1241
      7 C6          2.9371   -1.9096   -1.9410 C.3       1 <0>        -0.1169
      8 C7          1.5241   -2.4283   -2.2153 C.3       1 <0>        -0.1460
      9 C8          0.5779   -1.9352   -1.1186 C.3       1 <0>         0.0828
     10 H2          0.9191   -2.3044   -0.1514 H         1 <0>         0.0730
     11 O1         -0.7418   -2.4197   -1.3749 O.3       1 <0>        -0.2595
     12 C9         -1.0387   -3.6662   -0.9262 C.ar      1 <0>         0.1928
     13 C10        -0.0513   -4.4536   -0.3557 C.ar      1 <0>        -0.2109
     14 C11        -0.3551   -5.7229    0.1007 C.ar      1 <0>         0.0237
     15 C12        -1.6459   -6.2153   -0.0083 C.ar      1 <0>        -0.1521
     16 C13        -2.6384   -5.4432   -0.5737 C.ar      1 <0>        -0.0421
     17 C14        -2.3447   -4.1588   -1.0329 C.ar      1 <0>        -0.0861
     18 C15        -3.4065   -3.3243   -1.6350 C.2       1 <0>         0.4044
     19 N1         -3.1279   -2.1287   -2.0673 N.2       1 <0>        -0.3778
     20 O2         -4.1448   -1.3295   -2.6439 O.3       1 <0>        -0.4285
     21 N2         -4.6973   -3.8149   -1.7389 N.pl3     1 <0>        -0.8734
     22 Cl1         0.8866   -6.7048    0.8134 Cl        1 <0>        -0.0569
     23 H3          0.4975    2.0535    0.0695 H         1 <0>         0.0545
     24 H4         -0.8778    1.9062   -1.0509 H         1 <0>         0.0543
     25 H5         -1.1626    1.9636    0.7052 H         1 <0>         0.0527
     26 H6          0.0090   -0.2061    0.9662 H         1 <0>         0.0569
     27 H7         -1.3663   -0.3534   -0.1541 H         1 <0>         0.0745
     28 H8          1.9704    1.2033   -0.8214 H         1 <0>         0.0747
     29 H9          2.3201   -0.2557    0.1362 H         1 <0>         0.0641
     30 H10         2.5839   -0.0105   -2.8948 H         1 <0>         0.0652
     31 H11         3.9317   -0.0101   -1.7322 H         1 <0>         0.0661
     32 H12         3.6111   -2.2608   -2.7222 H         1 <0>         0.0690
     33 H13         3.2782   -2.2787   -0.9738 H         1 <0>         0.0636
     34 H14         1.1829   -2.0591   -3.1825 H         1 <0>         0.0768
     35 H15         1.5326   -3.5182   -2.2248 H         1 <0>         0.0685
     36 H16         0.9566   -4.0756   -0.2679 H         1 <0>         0.1474
     37 H17        -1.8752   -7.2078    0.3506 H         1 <0>         0.1431
     38 H18        -3.6431   -5.8305   -0.6572 H         1 <0>         0.1417
     39 H19        -3.8426   -0.4583   -2.9351 H         1 <0>         0.4001
     40 H20        -4.9049   -4.7059   -1.4167 H         1 <0>         0.3938
     41 H21        -5.3938   -3.2674   -2.1339 H         1 <0>         0.4096
@<TRIPOS>BOND
     1    1    2 1
     2    1   23 1
     3    1   24 1
     4    1   25 1
     5    2    3 1
     6    2   26 1
     7    2   27 1
     8    3    4 1
     9    3    9 1
    10    3    5 1
    11    5    6 1
    12    5   28 1
    13    5   29 1
    14    6    7 1
    15    6   30 1
    16    6   31 1
    17    7    8 1
    18    7   32 1
    19    7   33 1
    20    8    9 1
    21    8   34 1
    22    8   35 1
    23    9   10 1
    24    9   11 1
    25   11   12 1
    26   12   17 ar
    27   12   13 ar
    28   13   14 ar
    29   13   36 1
    30   14   15 ar
    31   14   22 1
    32   15   16 ar
    33   15   37 1
    34   16   17 ar
    35   16   38 1
    36   17   18 1
    37   18   19 2
    38   18   21 1
    39   19   20 1
    40   20   39 1
    41   21   40 1
    42   21   41 1
@<TRIPOS>MOLECULE
ZINC12348642
   42    45     0     0     0
SMALL
USER_CHARGES
(4R)-4-(2-fluorophenyl)-3-hydroxy-7,7-dimethyl-4,6,8,9-tetrahydro-1H-pyrazolo[5,4-b]quinolin-5-one
@<TRIPOS>ATOM
      1 C1          3.1550    1.3457    3.4313 C.3       1 <0>        -0.1543
      2 C2          4.2071    2.4387    3.6298 C.3       1 <0>        -0.0540
      3 C3          5.1465    2.4751    2.4234 C.3       1 <0>        -0.0887
      4 C4          4.3604    2.7973    1.1731 C.2       1 <0>         0.2354
      5 C5          3.2591    3.5770    1.2298 C.2       1 <0>        -0.2710
      6 C6          2.4530    3.9350   -0.0002 C.3       1 <0>         0.1081
      7 H1          2.2393    5.0038    0.0055 H         1 <0>         0.0936
      8 C7          3.2336    3.5879   -1.2359 C.2       1 <0>        -0.2686
      9 C8          4.3494    2.7941   -1.2004 C.2       1 <0>         0.3429
     10 N1          4.8078    2.6727   -2.4604 N.pl3     1 <0>        -0.4666
     11 H2          5.6097    2.1492   -2.7482 H         1 <0>         0.4502
     12 N2          3.9579    3.4131   -3.2982 N.2       1 <0>        -0.3381
     13 C9          3.0168    3.9590   -2.5595 C.2       1 <0>         0.3073
     14 O1          2.0066    4.7495   -3.0110 O.3       1 <0>        -0.4291
     15 N3          4.8257    2.2686   -0.0052 N.pl3     1 <0>        -0.6297
     16 C10         1.1577    3.1647    0.0075 C.ar      1 <0>        -0.0947
     17 C11         1.1753    1.7826    0.0004 C.ar      1 <0>        -0.0807
     18 C12        -0.0126    1.0758    0.0080 C.ar      1 <0>        -0.1369
     19 C13        -1.2196    1.7503    0.0173 C.ar      1 <0>        -0.0949
     20 C14        -1.2395    3.1318    0.0298 C.ar      1 <0>        -0.1584
     21 C15        -0.0501    3.8410    0.0222 C.ar      1 <0>         0.1232
     22 F1         -0.0684    5.1919    0.0297 F         1 <0>        -0.1306
     23 C16         2.8065    4.0983    2.4553 C.2       1 <0>         0.4004
     24 O2          1.8163    4.8029    2.4715 O.2       1 <0>        -0.4604
     25 C17         3.5190    3.8032    3.7454 C.3       1 <0>        -0.1506
     26 C18         5.0107    2.1561    4.9007 C.3       1 <0>        -0.1425
     27 H3          3.6494    0.3797    3.3291 H         1 <0>         0.0609
     28 H4          2.4877    1.3230    4.2929 H         1 <0>         0.0635
     29 H5          2.5783    1.5558    2.5305 H         1 <0>         0.0636
     30 H6          5.6273    1.5035    2.3089 H         1 <0>         0.0907
     31 H7          5.9073    3.2397    2.5803 H         1 <0>         0.1031
     32 H8          2.0848    4.8568   -4.0021 H         1 <0>         0.4057
     33 H9          5.4717    1.5450   -0.0036 H         1 <0>         0.4199
     34 H10         2.1174    1.2548   -0.0107 H         1 <0>         0.1181
     35 H11         0.0021   -0.0041    0.0020 H         1 <0>         0.1241
     36 H12        -2.1471    1.1970    0.0191 H         1 <0>         0.1293
     37 H13        -2.1824    3.6584    0.0409 H         1 <0>         0.1331
     38 H14         2.8623    3.7825    4.4993 H         1 <0>         0.0883
     39 H15         4.2660    4.5741    3.9347 H         1 <0>         0.1005
     40 H16         5.7524    2.9419    5.0439 H         1 <0>         0.0611
     41 H17         4.3379    2.1310    5.7579 H         1 <0>         0.0649
     42 H18         5.5143    1.1941    4.8058 H         1 <0>         0.0620
@<TRIPOS>BOND
     1    1    2 1
     2    1   27 1
     3    1   28 1
     4    1   29 1
     5    2   25 1
     6    2    3 1
     7    2   26 1
     8    3    4 1
     9    3   30 1
    10    3   31 1
    11    4   15 1
    12    4    5 2
    13    5    6 1
    14    5   23 1
    15    6    7 1
    16    6    8 1
    17    6   16 1
    18    8   13 1
    19    8    9 2
    20    9   10 1
    21    9   15 1
    22   10   11 1
    23   10   12 1
    24   12   13 2
    25   13   14 1
    26   14   32 1
    27   15   33 1
    28   16   21 ar
    29   16   17 ar
    30   17   18 ar
    31   17   34 1
    32   18   19 ar
    33   18   35 1
    34   19   20 ar
    35   19   36 1
    36   20   21 ar
    37   20   37 1
    38   21   22 1
    39   23   24 2
    40   23   25 1
    41   25   38 1
    42   25   39 1
    43   26   40 1
    44   26   41 1
    45   26   42 1
@<TRIPOS>MOLECULE
ZINC39980873
   47    50     0     0     0
SMALL
USER_CHARGES

@<TRIPOS>ATOM
      1 C1         -0.0164    1.3618    0.0095 C.ar      1 <0>        -0.1481
      2 C2          1.1690    2.0845    0.0021 C.ar      1 <0>        -0.0609
      3 C3          2.3863    1.4388   -0.0135 C.ar      1 <0>        -0.1648
      4 C4          2.4301    0.0483   -0.0214 C.ar      1 <0>         0.1866
      5 C5          1.2262   -0.6809   -0.0133 C.ar      1 <0>        -0.1238
      6 C6          0.0021   -0.0041    0.0020 C.ar      1 <0>        -0.0489
      7 C7          1.2826   -2.1439   -0.0217 C.2       1 <0>         0.0252
      8 C8          2.4979   -2.7451   -0.0370 C.2       1 <0>        -0.1950
      9 C9          3.6756   -1.9674   -0.0441 C.2       1 <0>         0.5382
     10 O1          4.7578   -2.5281   -0.0579 O.2       1 <0>        -0.5356
     11 N1          3.6338   -0.6236   -0.0365 N.am      1 <0>        -0.6303
     12 H1          4.4625   -0.1195   -0.0424 H         1 <0>         0.4166
     13 C10         0.0180   -2.9634   -0.0130 C.3       1 <0>        -0.0554
     14 S1         -0.7131   -2.9296    1.6468 S.3       1 <0>        -0.1796
     15 C11        -2.2058   -3.9483    1.4897 C.3       1 <0>         0.2619
     16 H2         -2.7202   -4.0038    2.4491 H         1 <0>         0.1155
     17 N2         -1.8425   -5.3090    1.0323 N.3       1 <0>        -0.5324
     18 N3         -2.9323   -5.6686    0.1090 N.3       1 <0>        -0.5248
     19 C12        -3.2322   -4.3694   -0.5481 C.3       1 <0>         0.2302
     20 H3         -2.5253   -4.1801   -1.3559 H         1 <0>         0.0620
     21 O2         -3.0791   -3.3870    0.4982 O.3       1 <0>        -0.3507
     22 C13        -4.6658   -4.3604   -1.0824 C.3       1 <0>        -0.0726
     23 C14        -4.8725   -5.5604   -2.0087 C.3       1 <0>        -0.1141
     24 C15        -6.3061   -5.5514   -2.5430 C.3       1 <0>        -0.1174
     25 C16        -6.5519   -4.2576   -3.3220 C.3       1 <0>        -0.1226
     26 C17        -6.3453   -3.0575   -2.3957 C.3       1 <0>        -0.1185
     27 C18        -4.9116   -3.0666   -1.8614 C.3       1 <0>        -0.1125
     28 H4         -0.9616    1.8841    0.0259 H         1 <0>         0.1315
     29 H5          1.1368    3.1640    0.0082 H         1 <0>         0.1335
     30 H6          3.3029    2.0100   -0.0199 H         1 <0>         0.1353
     31 H7         -0.9244   -0.5590    0.0083 H         1 <0>         0.1376
     32 H8          2.5648   -3.8230   -0.0434 H         1 <0>         0.1568
     33 H9         -0.6896   -2.5473   -0.7302 H         1 <0>         0.1016
     34 H10         0.2501   -3.9926   -0.2869 H         1 <0>         0.1068
     35 H11        -1.7994   -5.9520    1.8087 H         1 <0>         0.3733
     36 H12        -2.6238   -6.3524   -0.5658 H         1 <0>         0.3666
     37 H13        -5.3649   -4.4206   -0.2483 H         1 <0>         0.0866
     38 H14        -4.1735   -5.5002   -2.8429 H         1 <0>         0.0612
     39 H15        -4.6974   -6.4821   -1.4538 H         1 <0>         0.0705
     40 H16        -6.4534   -6.4063   -3.2029 H         1 <0>         0.0645
     41 H17        -7.0052   -5.6116   -1.7089 H         1 <0>         0.0638
     42 H18        -5.8529   -4.1974   -4.1561 H         1 <0>         0.0615
     43 H19        -7.5733   -4.2511   -3.7026 H         1 <0>         0.0627
     44 H20        -6.5204   -2.1358   -2.9506 H         1 <0>         0.0643
     45 H21        -7.0443   -3.1178   -1.5615 H         1 <0>         0.0631
     46 H22        -4.7644   -2.2117   -1.2015 H         1 <0>         0.0696
     47 H23        -4.2126   -3.0064   -2.6955 H         1 <0>         0.0612
@<TRIPOS>BOND
     1    1    6 ar
     2    1    2 ar
     3    1   28 1
     4    2    3 ar
     5    2   29 1
     6    3    4 ar
     7    3   30 1
     8    4   11 1
     9    4    5 ar
    10    5    6 ar
    11    5    7 1
    12    6   31 1
    13    7    8 2
    14    7   13 1
    15    8    9 1
    16    8   32 1
    17    9   10 2
    18    9   11 am
    19   11   12 1
    20   13   14 1
    21   13   33 1
    22   13   34 1
    23   14   15 1
    24   15   16 1
    25   15   21 1
    26   15   17 1
    27   17   18 1
    28   17   35 1
    29   18   19 1
    30   18   36 1
    31   19   20 1
    32   19   21 1
    33   19   22 1
    34   22   27 1
    35   22   23 1
    36   22   37 1
    37   23   24 1
    38   23   38 1
    39   23   39 1
    40   24   25 1
    41   24   40 1
    42   24   41 1
    43   25   26 1
    44   25   42 1
    45   25   43 1
    46   26   27 1
    47   26   44 1
    48   26   45 1
    49   27   46 1
    50   27   47 1
@<TRIPOS>MOLECULE
ZINC49458406
   35    36     0     0     0
SMALL
USER_CHARGES

@<TRIPOS>ATOM
      1 C1         -0.0169    1.3916    0.0097 C.ar      1 <0>        -0.0569
      2 C2          1.1694    2.0957    0.0021 C.ar      1 <0>        -0.0641
      3 C3          2.3781    1.4217   -0.0135 C.ar      1 <0>        -0.1074
      4 C4          2.4048    0.0349   -0.0216 C.ar      1 <0>         0.1270
      5 C5          1.2233   -0.6803   -0.0142 C.ar      1 <0>        -0.1193
      6 C6          0.0021   -0.0041    0.0020 C.ar      1 <0>        -0.0851
      7 C7         -1.2661   -0.7632    0.0100 C.2       1 <0>         0.5646
      8 O1         -2.3282   -0.1720    0.0234 O.2       1 <0>        -0.5129
      9 N1         -1.2450   -2.1107    0.0026 N.am      1 <0>        -0.5237
     10 N2         -2.4471   -2.8303    0.0102 N.am      1 <0>        -0.5293
     11 C8         -2.4259   -4.1778    0.0028 C.2       1 <0>         0.7137
     12 O2         -3.4691   -4.8023    0.0094 O.2       1 <0>        -0.5620
     13 N3         -1.2483   -4.8332   -0.0120 N.am      1 <0>        -0.7374
     14 C9         -1.2253   -6.2980   -0.0201 C.3       1 <0>         0.1550
     15 C10        -1.2580   -6.8350    1.4257 C.3       1 <0>        -0.1369
     16 C11        -0.3313   -8.0757    1.3912 C.3       1 <0>        -0.1255
     17 C12         0.8062   -7.6263    0.4408 C.3       1 <0>        -0.1252
     18 C13         0.0871   -6.8011   -0.6463 C.3       1 <0>        -0.1324
     19 F1          3.5880   -0.6170   -0.0373 F         1 <0>        -0.1157
     20 Br1         3.9993    2.3950   -0.0243 Br        1 <0>        -0.0105
     21 H1         -0.9589    1.9195    0.0260 H         1 <0>         0.1584
     22 H2          1.1548    3.1756    0.0081 H         1 <0>         0.1564
     23 H3          1.2441   -1.7601   -0.0213 H         1 <0>         0.1456
     24 H4         -0.3974   -2.5824   -0.0080 H         1 <0>         0.4188
     25 H5         -3.2946   -2.3586    0.0208 H         1 <0>         0.4457
     26 H6         -0.4160   -4.3351   -0.0172 H         1 <0>         0.3884
     27 H7         -2.0777   -6.6815   -0.5809 H         1 <0>         0.0973
     28 H8         -0.8702   -6.0885    2.1188 H         1 <0>         0.0699
     29 H9         -2.2719   -7.1238    1.7026 H         1 <0>         0.0740
     30 H10         0.0593   -8.2939    2.3851 H         1 <0>         0.0705
     31 H11        -0.8569   -8.9391    0.9833 H         1 <0>         0.0715
     32 H12         1.5273   -7.0075    0.9748 H         1 <0>         0.0674
     33 H13         1.2987   -8.4925   -0.0011 H         1 <0>         0.0708
     34 H14        -0.1283   -7.4294   -1.5105 H         1 <0>         0.0792
     35 H15         0.7069   -5.9554   -0.9442 H         1 <0>         0.0701
@<TRIPOS>BOND
     1    1    6 ar
     2    1    2 ar
     3    1   21 1
     4    2    3 ar
     5    2   22 1
     6    3    4 ar
     7    3   20 1
     8    4    5 ar
     9    4   19 1
    10    5    6 ar
    11    5   23 1
    12    6    7 1
    13    7    8 2
    14    7    9 am
    15    9   10 1
    16    9   24 1
    17   10   11 am
    18   10   25 1
    19   11   12 2
    20   11   13 am
    21   13   14 1
    22   13   26 1
    23   14   18 1
    24   14   15 1
    25   14   27 1
    26   15   16 1
    27   15   28 1
    28   15   29 1
    29   16   17 1
    30   16   30 1
    31   16   31 1
    32   17   18 1
    33   17   32 1
    34   17   33 1
    35   18   34 1
    36   18   35 1
@<TRIPOS>MOLECULE
ZINC56604878
   48    50     0     0     0
SMALL
USER_CHARGES

@<TRIPOS>ATOM
      1 C1          0.0031    1.4977    0.0229 C.3       1 <0>        -0.1154
      2 C2          0.0232   -0.0091    0.0179 C.ar      1 <0>        -0.0828
      3 C3          0.0381   -0.6963   -1.1817 C.ar      1 <0>        -0.1203
      4 C4          0.0565   -2.0783   -1.1863 C.ar      1 <0>        -0.1157
      5 C5          0.0604   -2.7736    0.0088 C.ar      1 <0>        -0.1078
      6 C6          0.0464   -2.0866    1.2080 C.ar      1 <0>        -0.0813
      7 C7          0.0324   -0.7041    1.2126 C.ar      1 <0>        -0.1044
      8 C8          0.0502   -2.8444    2.5106 C.3       1 <0>         0.1962
      9 H1         -0.3238   -2.2066    3.3114 H         1 <0>         0.0858
     10 C9          1.4826   -3.3149    2.8399 C.3       1 <0>        -0.1232
     11 C10         1.2545   -4.7246    3.4466 C.3       1 <0>        -0.1301
     12 C11         0.0580   -5.2352    2.6057 C.3       1 <0>         0.0923
     13 N1         -0.7907   -4.0447    2.3932 N.am      1 <0>        -0.6274
     14 C12        -2.1135   -4.0548    2.1351 C.2       1 <0>         0.7223
     15 O1         -2.7102   -3.0072    1.9775 O.2       1 <0>        -0.5539
     16 N2         -2.7749   -5.2261    2.0517 N.am      1 <0>        -0.6792
     17 C13        -4.1662   -5.2350    1.9015 C.ar      1 <0>         0.1863
     18 C14        -4.9202   -4.1535    2.3384 C.ar      1 <0>        -0.1299
     19 C15        -6.2929   -4.1651    2.1882 C.ar      1 <0>        -0.0948
     20 C16        -6.9170   -5.2522    1.6039 C.ar      1 <0>        -0.1395
     21 C17        -6.1693   -6.3305    1.1683 C.ar      1 <0>        -0.0851
     22 C18        -4.7952   -6.3224    1.3100 C.ar      1 <0>        -0.1073
     23 C19        -3.9803   -7.4954    0.8293 C.3       1 <0>        -0.1031
     24 C20        -3.7388   -8.4429    1.9760 C.2       1 <0>         0.5092
     25 O2         -4.1845   -8.1905    3.0753 O.2       1 <0>        -0.5257
     26 N3         -3.0276   -9.5708    1.7798 N.am      1 <0>        -0.8580
     27 H2          1.0259    1.8747    0.0242 H         1 <0>         0.0703
     28 H3         -0.5155    1.8571   -0.8659 H         1 <0>         0.0662
     29 H4         -0.5155    1.8513    0.9140 H         1 <0>         0.0665
     30 H5          0.0350   -0.1532   -2.1152 H         1 <0>         0.1201
     31 H6          0.0674   -2.6151   -2.1234 H         1 <0>         0.1192
     32 H7          0.0741   -3.8535    0.0052 H         1 <0>         0.1117
     33 H8          0.0252   -0.1672    2.1497 H         1 <0>         0.1203
     34 H9          2.0857   -3.3779    1.9341 H         1 <0>         0.0827
     35 H10         1.9482   -2.6519    3.5691 H         1 <0>         0.0893
     36 H11         2.1304   -5.3576    3.3044 H         1 <0>         0.0892
     37 H12         0.9901   -4.6576    4.5019 H         1 <0>         0.0807
     38 H13         0.4061   -5.6297    1.6511 H         1 <0>         0.0707
     39 H14        -0.4929   -5.9990    3.1545 H         1 <0>         0.0736
     40 H15        -2.2865   -6.0631    2.0959 H         1 <0>         0.4012
     41 H16        -4.4335   -3.3046    2.7954 H         1 <0>         0.1470
     42 H17        -6.8798   -3.3244    2.5278 H         1 <0>         0.1251
     43 H18        -7.9907   -5.2590    1.4879 H         1 <0>         0.1233
     44 H19        -6.6596   -7.1782    0.7130 H         1 <0>         0.1236
     45 H20        -4.5214   -8.0136    0.0376 H         1 <0>         0.1100
     46 H21        -3.0246   -7.1403    0.4439 H         1 <0>         0.0969
     47 H22        -2.6711   -9.7726    0.9006 H         1 <0>         0.4020
     48 H23        -2.8721  -10.1807    2.5179 H         1 <0>         0.4031
@<TRIPOS>BOND
     1    1    2 1
     2    1   27 1
     3    1   28 1
     4    1   29 1
     5    2    7 ar
     6    2    3 ar
     7    3    4 ar
     8    3   30 1
     9    4    5 ar
    10    4   31 1
    11    5    6 ar
    12    5   32 1
    13    6    7 ar
    14    6    8 1
    15    7   33 1
    16    8    9 1
    17    8   13 1
    18    8   10 1
    19   10   11 1
    20   10   34 1
    21   10   35 1
    22   11   12 1
    23   11   36 1
    24   11   37 1
    25   12   13 1
    26   12   38 1
    27   12   39 1
    28   13   14 am
    29   14   15 2
    30   14   16 am
    31   16   17 1
    32   16   40 1
    33   17   22 ar
    34   17   18 ar
    35   18   19 ar
    36   18   41 1
    37   19   20 ar
    38   19   42 1
    39   20   21 ar
    40   20   43 1
    41   21   22 ar
    42   21   44 1
    43   22   23 1
    44   23   24 1
    45   23   45 1
    46   23   46 1
    47   24   25 2
    48   24   26 am
    49   26   47 1
    50   26   48 1
@<TRIPOS>MOLECULE
ZINC64937579
   45    48     0     0     0
SMALL
USER_CHARGES

@<TRIPOS>ATOM
      1 C1          0.5335    0.5837   -0.1484 C.3       1 <0>        -0.0794
      2 C2          0.3167   -0.9021   -0.0195 C.2       1 <0>        -0.1691
      3 C3          0.2215   -1.7853   -1.0258 C.2       1 <0>         0.0798
      4 N1          0.0257   -3.0437   -0.5253 N.pl3     1 <0>        -0.5909
      5 H1         -0.0728   -3.8470   -1.0599 H         1 <0>         0.4164
      6 C4         -0.0109   -2.9997    0.8505 C.ar      1 <0>         0.1099
      7 C5          0.1761   -1.6572    1.2279 C.ar      1 <0>        -0.1042
      8 C6          0.1911   -1.3093    2.5796 C.ar      1 <0>        -0.0411
      9 C7          0.0273   -2.2766    3.5310 C.ar      1 <0>        -0.1505
     10 C8         -0.1534   -3.6028    3.1641 C.ar      1 <0>        -0.0823
     11 C9         -0.1807   -3.9670    1.8354 C.ar      1 <0>        -0.1273
     12 C10         0.0436   -1.9003    4.9902 C.3       1 <0>         0.1438
     13 N2         -1.3179   -1.5818    5.4275 N.pl3     1 <0>        -0.6846
     14 C11        -1.5491   -1.2129    6.7145 C.2       1 <0>         0.3072
     15 C12        -2.8414   -1.0544    7.1639 C.2       1 <0>        -0.3543
     16 C13        -3.9574   -1.8047    6.5513 C.ar      1 <0>         0.0579
     17 C14        -3.7525   -2.6955    5.5039 C.ar      1 <0>        -0.1825
     18 C15        -4.8276   -3.3727    4.9658 C.ar      1 <0>        -0.0611
     19 C16        -6.1076   -3.1709    5.4613 C.ar      1 <0>        -0.1573
     20 C17        -6.3303   -2.2920    6.4992 C.ar      1 <0>        -0.0276
     21 C18        -5.2570   -1.5973    7.0580 C.ar      1 <0>        -0.1737
     22 C19        -5.4506   -0.6521    8.1653 C.2       1 <0>         0.5720
     23 O1         -6.5692   -0.4690    8.6066 O.2       1 <0>        -0.5116
     24 N3         -4.4132    0.0132    8.6990 N.am      1 <0>        -0.6661
     25 C20        -3.1501   -0.1399    8.2693 C.2       1 <0>         0.5884
     26 O2         -2.2529    0.4898    8.7989 O.2       1 <0>        -0.5315
     27 C21         0.3158   -1.4419   -2.4902 C.3       1 <0>        -0.0965
     28 H2          1.6026    0.7958   -0.1534 H         1 <0>         0.0649
     29 H3          0.0888    0.9364   -1.0790 H         1 <0>         0.0645
     30 H4          0.0658    1.0935    0.6939 H         1 <0>         0.0635
     31 H5          0.3319   -0.2793    2.8726 H         1 <0>         0.1253
     32 H6         -0.2808   -4.3561    3.9275 H         1 <0>         0.1284
     33 H7         -0.3208   -5.0019    1.5600 H         1 <0>         0.1242
     34 H8          0.4276   -2.7351    5.5764 H         1 <0>         0.0888
     35 H9          0.6842   -1.0302    5.1339 H         1 <0>         0.0896
     36 H10        -2.0542   -1.6343    4.7983 H         1 <0>         0.4166
     37 H11        -0.7196   -1.0441    7.3852 H         1 <0>         0.1677
     38 H12        -2.7584   -2.8561    5.1136 H         1 <0>         0.1361
     39 H13        -4.6713   -4.0654    4.1520 H         1 <0>         0.1274
     40 H14        -6.9387   -3.7082    5.0288 H         1 <0>         0.1301
     41 H15        -7.3304   -2.1416    6.8781 H         1 <0>         0.1380
     42 H16        -4.5832    0.6286    9.4292 H         1 <0>         0.4151
     43 H17         1.3554   -1.5044   -2.8118 H         1 <0>         0.0796
     44 H18        -0.2860   -2.1438   -3.0675 H         1 <0>         0.0692
     45 H19        -0.0538   -0.4290   -2.6503 H         1 <0>         0.0871
@<TRIPOS>BOND
     1    1    2 1
     2    1   28 1
     3    1   29 1
     4    1   30 1
     5    2    7 1
     6    2    3 2
     7    3    4 1
     8    3   27 1
     9    4    5 1
    10    4    6 1
    11    6   11 ar
    12    6    7 ar
    13    7    8 ar
    14    8    9 ar
    15    8   31 1
    16    9   10 ar
    17    9   12 1
    18   10   11 ar
    19   10   32 1
    20   11   33 1
    21   12   13 1
    22   12   34 1
    23   12   35 1
    24   13   14 1
    25   13   36 1
    26   14   15 2
    27   14   37 1
    28   15   25 1
    29   15   16 1
    30   16   21 ar
    31   16   17 ar
    32   17   18 ar
    33   17   38 1
    34   18   19 ar
    35   18   39 1
    36   19   20 ar
    37   19   40 1
    38   20   21 ar
    39   20   41 1
    40   21   22 1
    41   22   23 2
    42   22   24 am
    43   24   25 am
    44   24   42 1
    45   25   26 2
    46   27   43 1
    47   27   44 1
    48   27   45 1
@<TRIPOS>MOLECULE
ZINC16990706
   25    26     0     0     0
SMALL
USER_CHARGES
2-amino-6-(3-chloroanilino)-1H-pyrimidin-4-one
@<TRIPOS>ATOM
      1 C1          4.8377    1.3878    0.1773 C.ar      1 <0>        -0.0766
      2 C2          3.6120    2.0190    0.0915 C.ar      1 <0>        -0.1396
      3 C3          3.5448    3.4062    0.0929 C.ar      1 <0>         0.2018
      4 C4          4.7105    4.1551    0.1910 C.ar      1 <0>        -0.1635
      5 C5          5.9334    3.5179    0.2814 C.ar      1 <0>        -0.0024
      6 C6          5.9967    2.1351    0.2744 C.ar      1 <0>        -0.1464
      7 Cl1         7.3913    4.4523    0.4046 Cl        1 <0>        -0.0684
      8 N1          2.3057    4.0476    0.0017 N.pl3     1 <0>        -0.6651
      9 C7          1.1952    3.3447   -0.4091 C.2       1 <0>         0.4653
     10 C8         -0.0399    3.6510    0.0854 C.2       1 <0>        -0.4052
     11 C9         -1.1532    2.9101   -0.3588 C.2       1 <0>         0.5533
     12 O1         -2.2700    3.1641    0.0687 O.2       1 <0>        -0.5494
     13 N2         -0.9811    1.9202   -1.2495 N.am      1 <0>        -0.6532
     14 C10         0.2131    1.6367   -1.7234 C.2       1 <0>         0.6534
     15 N3          1.3142    2.3279   -1.3205 N.2       1 <0>        -0.6225
     16 N4          0.3514    0.6241   -2.6353 N.pl3     1 <0>        -0.8444
     17 H1          4.8903    0.3091    0.1724 H         1 <0>         0.1321
     18 H2          2.7069    1.4342    0.0195 H         1 <0>         0.1376
     19 H3          4.6611    5.2340    0.1969 H         1 <0>         0.1340
     20 H4          6.9534    1.6390    0.3452 H         1 <0>         0.1316
     21 H5          2.2180    5.1137    0.2581 H         1 <0>         0.4501
     22 H6         -0.1616    4.4473    0.8048 H         1 <0>         0.1468
     23 H7          1.3451    0.3786   -3.0381 H         1 <0>         0.4553
     24 H8         -0.5313    0.0564   -2.9649 H         1 <0>         0.4387
     25 H9         -1.8455    1.3331   -1.5931 H         1 <0>         0.4367
@<TRIPOS>BOND
     1    1    6 ar
     2    1    2 ar
     3    1   17 1
     4    2    3 ar
     5    2   18 1
     6    3    4 ar
     7    3    8 1
     8    4    5 ar
     9    4   19 1
    10    5    6 ar
    11    5    7 1
    12    6   20 1
    13    8    9 1
    14    8   21 1
    15    9   15 1
    16    9   10 2
    17   10   11 1
    18   10   22 1
    19   11   12 2
    20   11   13 am
    21   13   14 1
    22   13   25 1
    23   14   15 2
    24   14   16 1
    25   16   23 1
    26   16   24 1
@<TRIPOS>MOLECULE
ZINC40369656
   41    42     0     0     0
SMALL
USER_CHARGES

@<TRIPOS>ATOM
      1 C1         -0.0187    1.5258    0.0104 C.3       1 <0>        -0.1136
      2 C2          0.0021   -0.0041    0.0020 C.3       1 <0>        -0.1153
      3 H1         -0.8825   -0.4839   -0.4168 H         1 <0>         0.1127
      4 C3          1.3509   -0.6911   -0.2209 C.3       1 <0>        -0.1509
      5 C4          0.7031   -0.7075    1.1659 C.3       1 <0>        -0.1965
      6 H2          0.2800   -1.6503    1.5125 H         1 <0>         0.1238
      7 C5          1.3204    0.1595    2.2328 C.2       1 <0>         0.5435
      8 O1          1.2501    1.3674    2.1485 O.2       1 <0>        -0.5123
      9 N1          1.9505   -0.4073    3.2808 N.am      1 <0>        -0.7221
     10 C6          2.5505    0.4356    4.3180 C.3       1 <0>         0.2108
     11 H3          1.9368    1.3245    4.4638 H         1 <0>         0.1192
     12 C7          2.6315   -0.3489    5.6290 C.3       1 <0>        -0.0878
     13 C8          1.2244   -0.7660    6.0616 C.3       1 <0>        -0.1127
     14 C9          1.3054   -1.5505    7.3726 C.3       1 <0>        -0.1187
     15 C10         1.9320   -0.6702    8.4558 C.3       1 <0>        -0.1229
     16 C11         3.3391   -0.2532    8.0233 C.3       1 <0>        -0.1171
     17 C12         3.2581    0.5313    6.7122 C.3       1 <0>        -0.1125
     18 C13         3.9364    0.8464    3.8919 C.2       1 <0>         0.3562
     19 N2          4.1996    2.0901    3.6626 N.2       1 <0>        -0.4011
     20 O2          5.5019    2.4761    3.2623 O.3       1 <0>        -0.4295
     21 N3          4.9224   -0.1042    3.7470 N.pl3     1 <0>        -0.8687
     22 H4          1.0039    1.9031    0.0027 H         1 <0>         0.0632
     23 H5         -0.5459    1.8868   -0.8726 H         1 <0>         0.0509
     24 H6         -0.5289    1.8773    0.9072 H         1 <0>         0.0684
     25 H7          1.3536   -1.6231   -0.7861 H         1 <0>         0.1049
     26 H8          2.2234   -0.0532   -0.3616 H         1 <0>         0.0985
     27 H9          2.0066   -1.3733    3.3482 H         1 <0>         0.4025
     28 H10         3.2452   -1.2379    5.4832 H         1 <0>         0.0786
     29 H11         0.6107    0.1230    6.2074 H         1 <0>         0.0686
     30 H12         0.7779   -1.3931    5.2899 H         1 <0>         0.0661
     31 H13         0.3029   -1.8476    7.6808 H         1 <0>         0.0651
     32 H14         1.9191   -2.4394    7.2268 H         1 <0>         0.0624
     33 H15         1.3183    0.2187    8.6017 H         1 <0>         0.0635
     34 H16         1.9897   -1.2292    9.3898 H         1 <0>         0.0627
     35 H17         3.7855    0.3739    8.7950 H         1 <0>         0.0648
     36 H18         3.9528   -1.1422    7.8774 H         1 <0>         0.0618
     37 H19         4.2605    0.8284    6.4041 H         1 <0>         0.0656
     38 H20         2.6444    1.4203    6.8581 H         1 <0>         0.0694
     39 H21         5.6024    3.4264    3.1143 H         1 <0>         0.4001
     40 H22         4.7247   -1.0382    3.9192 H         1 <0>         0.3925
     41 H23         5.8144    0.1602    3.4728 H         1 <0>         0.4059
@<TRIPOS>BOND
     1    1    2 1
     2    1   22 1
     3    1   23 1
     4    1   24 1
     5    2    3 1
     6    2    5 1
     7    2    4 1
     8    4    5 1
     9    4   25 1
    10    4   26 1
    11    5    6 1
    12    5    7 1
    13    7    8 2
    14    7    9 am
    15    9   10 1
    16    9   27 1
    17   10   11 1
    18   10   12 1
    19   10   18 1
    20   12   17 1
    21   12   13 1
    22   12   28 1
    23   13   14 1
    24   13   29 1
    25   13   30 1
    26   14   15 1
    27   14   31 1
    28   14   32 1
    29   15   16 1
    30   15   33 1
    31   15   34 1
    32   16   17 1
    33   16   35 1
    34   16   36 1
    35   17   37 1
    36   17   38 1
    37   18   19 2
    38   18   21 1
    39   19   20 1
    40   20   39 1
    41   21   40 1
    42   21   41 1
@<TRIPOS>MOLECULE
ZINC43321001
   31    31     0     0     0
SMALL
USER_CHARGES

@<TRIPOS>ATOM
      1 C1         -0.0184    1.5028    0.0103 C.3       1 <0>        -0.1080
      2 C2          0.0021   -0.0041    0.0020 C.ar      1 <0>        -0.1920
      3 C3          0.0058   -0.6929   -1.2040 C.ar      1 <0>         0.2450
      4 C4          0.0252   -2.0819   -1.2075 C.ar      1 <0>        -0.2089
      5 C5          0.0406   -2.7749   -0.0126 C.ar      1 <0>        -0.0471
      6 C6          0.0364   -2.0883    1.1871 C.ar      1 <0>        -0.2065
      7 C7          0.0229   -0.7030    1.1953 C.ar      1 <0>         0.1446
      8 F1          0.0245   -0.0346    2.3693 F         1 <0>        -0.1359
      9 N1         -0.0103    0.0096   -2.4111 N.pl3     1 <0>        -0.7272
     10 C8         -0.0063   -0.7184   -3.6824 C.3       1 <0>         0.1360
     11 H1          0.5966   -1.6210   -3.5823 H         1 <0>         0.1152
     12 C9         -1.4399   -1.1014   -4.0552 C.3       1 <0>        -0.1701
     13 C10         0.5763    0.1578   -4.7612 C.2       1 <0>         0.5150
     14 O1          0.9511    1.2795   -4.4944 O.2       1 <0>        -0.4558
     15 N2          0.6807   -0.3055   -6.0225 N.am      1 <0>        -0.6873
     16 C11         1.2017    0.4782   -6.9873 C.2       1 <0>         0.6961
     17 O2          1.5775    1.6027   -6.7199 O.2       1 <0>        -0.5303
     18 N3          1.3061    0.0149   -8.2486 N.am      1 <0>        -0.8552
     19 H2          1.0042    1.8801    0.0026 H         1 <0>         0.0716
     20 H3         -0.5455    1.8639   -0.8728 H         1 <0>         0.0647
     21 H4         -0.5286    1.8543    0.9071 H         1 <0>         0.0718
     22 H5          0.0278   -2.6198   -2.1440 H         1 <0>         0.1278
     23 H6          0.0557   -3.8548   -0.0158 H         1 <0>         0.1327
     24 H7          0.0482   -2.6327    2.1197 H         1 <0>         0.1324
     25 H8         -0.0241    0.9795   -2.4076 H         1 <0>         0.4125
     26 H9         -2.0428   -0.1989   -4.1553 H         1 <0>         0.0696
     27 H10        -1.4369   -1.6431   -5.0011 H         1 <0>         0.0722
     28 H11        -1.8613   -1.7352   -3.2750 H         1 <0>         0.0817
     29 H12         0.3808   -1.2029   -6.2359 H         1 <0>         0.4122
     30 H13         1.0062   -0.8825   -8.4620 H         1 <0>         0.4008
     31 H14         1.6811    0.5789   -8.9430 H         1 <0>         0.4224
@<TRIPOS>BOND
     1    1    2 1
     2    1   19 1
     3    1   20 1
     4    1   21 1
     5    2    7 ar
     6    2    3 ar
     7    3    4 ar
     8    3    9 1
     9    4    5 ar
    10    4   22 1
    11    5    6 ar
    12    5   23 1
    13    6    7 ar
    14    6   24 1
    15    7    8 1
    16    9   10 1
    17    9   25 1
    18   10   11 1
    19   10   12 1
    20   10   13 1
    21   12   26 1
    22   12   27 1
    23   12   28 1
    24   13   14 2
    25   13   15 am
    26   15   16 am
    27   15   29 1
    28   16   17 2
    29   16   18 am
    30   18   30 1
    31   18   31 1
@<TRIPOS>MOLECULE
ZINC49194076
   40    42     0     0     0
SMALL
USER_CHARGES

@<TRIPOS>ATOM
      1 C1         -0.0184    1.5028    0.0103 C.3       1 <0>        -0.0761
      2 C2          0.0021   -0.0041    0.0020 C.2       1 <0>        -0.0090
      3 C3         -1.0783   -0.8055    0.0027 C.2       1 <0>        -0.2118
      4 C4         -0.6011   -2.1363   -0.0068 C.2       1 <0>        -0.1911
      5 C5          0.7423   -2.0686   -0.0126 C.2       1 <0>        -0.0269
      6 O1          1.1020   -0.7746   -0.0131 O.3       1 <0>        -0.1729
      7 C6          1.6840   -3.2450   -0.0226 C.3       1 <0>         0.2437
      8 H1          1.1588   -4.1339    0.3270 H         1 <0>         0.1051
      9 C7          2.1918   -3.4798   -1.4467 C.3       1 <0>        -0.1702
     10 N1          2.8193   -2.9694    0.8614 N.pl3     1 <0>        -0.7475
     11 C8          3.5348   -4.0301    1.4352 C.ar      1 <0>         0.1336
     12 C9          3.1719   -5.3400    1.1619 C.ar      1 <0>        -0.1213
     13 C10         3.8763   -6.3861    1.7274 C.ar      1 <0>        -0.1292
     14 C11         4.9492   -6.1287    2.5707 C.ar      1 <0>         0.1530
     15 C12         5.3173   -4.8191    2.8470 C.ar      1 <0>        -0.1877
     16 C13         4.6157   -3.7684    2.2768 C.ar      1 <0>         0.1856
     17 N2          4.9881   -2.4466    2.5496 N.pl3     1 <0>        -0.8788
     18 N3          5.6595   -7.1926    3.1414 N.am      1 <0>        -0.6609
     19 C14         5.5741   -8.4287    2.6165 C.2       1 <0>         0.5208
     20 O2          6.1839   -9.3421    3.1314 O.2       1 <0>        -0.5341
     21 C15         4.7302   -8.6908    1.3983 C.3       1 <0>        -0.1378
     22 C16         3.4814   -7.8098    1.4308 C.3       1 <0>        -0.0706
     23 H2          1.0042    1.8801    0.0026 H         1 <0>         0.0755
     24 H3         -0.5455    1.8639   -0.8728 H         1 <0>         0.0869
     25 H4         -0.5286    1.8543    0.9071 H         1 <0>         0.0866
     26 H5         -2.1119   -0.4924    0.0097 H         1 <0>         0.1497
     27 H6         -1.2002   -3.0349   -0.0086 H         1 <0>         0.1502
     28 H7          1.3471   -3.6849   -2.1044 H         1 <0>         0.0690
     29 H8          2.7170   -2.5910   -1.7963 H         1 <0>         0.0620
     30 H9          2.8729   -4.3307   -1.4539 H         1 <0>         0.0721
     31 H10         3.0760   -2.0531    1.0497 H         1 <0>         0.3969
     32 H11         2.3378   -5.5432    0.5067 H         1 <0>         0.1292
     33 H12         6.1517   -4.6190    3.5029 H         1 <0>         0.1270
     34 H13         4.4942   -1.7119    2.1530 H         1 <0>         0.3935
     35 H14         5.7399   -2.2655    3.1350 H         1 <0>         0.4006
     36 H15         6.2163   -7.0374    3.9203 H         1 <0>         0.4083
     37 H16         5.3086   -8.4662    0.5021 H         1 <0>         0.1027
     38 H17         4.4331   -9.7394    1.3825 H         1 <0>         0.1068
     39 H18         2.8046   -8.1680    2.2065 H         1 <0>         0.0791
     40 H19         2.9806   -7.8537    0.4637 H         1 <0>         0.0878
@<TRIPOS>BOND
     1    1    2 1
     2    1   23 1
     3    1   24 1
     4    1   25 1
     5    2    6 1
     6    2    3 2
     7    3    4 1
     8    3   26 1
     9    4    5 2
    10    4   27 1
    11    5    6 1
    12    5    7 1
    13    7    8 1
    14    7    9 1
    15    7   10 1
    16    9   28 1
    17    9   29 1
    18    9   30 1
    19   10   11 1
    20   10   31 1
    21   11   16 ar
    22   11   12 ar
    23   12   13 ar
    24   12   32 1
    25   13   22 1
    26   13   14 ar
    27   14   15 ar
    28   14   18 1
    29   15   16 ar
    30   15   33 1
    31   16   17 1
    32   17   34 1
    33   17   35 1
    34   18   19 am
    35   18   36 1
    36   19   20 2
    37   19   21 1
    38   21   22 1
    39   21   37 1
    40   21   38 1
    41   22   39 1
    42   22   40 1
@<TRIPOS>MOLECULE
ZINC51634301
   39    41     0     0     0
SMALL
USER_CHARGES

@<TRIPOS>ATOM
      1 C1          0.0468    1.4668   -0.0135 C.ar      1 <0>        -0.1205
      2 C2          1.2443    2.1577    0.0044 C.ar      1 <0>        -0.1200
      3 C3          2.4359    1.4631   -0.0086 C.ar      1 <0>        -0.1180
      4 C4          2.4433    0.0743   -0.0381 C.ar      1 <0>        -0.0725
      5 C5          1.2510   -0.6137   -0.0509 C.ar      1 <0>        -0.0807
      6 C6          0.0520    0.0877   -0.0414 C.ar      1 <0>        -0.1185
      7 C7          1.1834   -2.1184   -0.0667 C.3       1 <0>        -0.0768
      8 C8          2.5208   -2.7117   -0.5047 C.3       1 <0>        -0.1275
      9 C9          3.6308   -2.0845    0.3469 C.3       1 <0>         0.1467
     10 H1          3.3641   -2.1478    1.4019 H         1 <0>         0.0961
     11 C10         3.7800   -0.6197   -0.0590 C.3       1 <0>        -0.0905
     12 N1          4.8917   -2.7929    0.1134 N.am      1 <0>        -0.7187
     13 C11         5.8528   -2.7871    1.0582 C.2       1 <0>         0.5811
     14 O1          5.6734   -2.1939    2.1044 O.2       1 <0>        -0.5522
     15 C12         7.1218   -3.5000    0.8232 C.ar      1 <0>        -0.2755
     16 C13         7.2953   -4.2880   -0.3206 C.ar      1 <0>         0.0064
     17 C14         8.5050   -4.9361   -0.4949 C.ar      1 <0>        -0.2491
     18 C15         9.4998   -4.7896    0.4556 C.ar      1 <0>         0.1856
     19 N2          9.3169   -4.0430    1.5269 N.ar      1 <0>        -0.5318
     20 C16         8.1812   -3.3962    1.7404 C.ar      1 <0>         0.4584
     21 N3          8.0350   -2.6194    2.8749 N.pl3     1 <0>        -0.5468
     22 N4          9.0977   -2.4246    3.7108 N.3       1 <0>        -0.6027
     23 H2         -0.8895    2.0050   -0.0013 H         1 <0>         0.1226
     24 H3          1.2466    3.2374    0.0283 H         1 <0>         0.1224
     25 H4          3.3709    2.0035    0.0039 H         1 <0>         0.1200
     26 H5         -0.8838   -0.4512   -0.0563 H         1 <0>         0.1219
     27 H6          0.9411   -2.4777    0.9335 H         1 <0>         0.0805
     28 H7          0.4049   -2.4359   -0.7603 H         1 <0>         0.0823
     29 H8          2.5097   -3.7915   -0.3559 H         1 <0>         0.0781
     30 H9          2.6947   -2.4876   -1.5572 H         1 <0>         0.0740
     31 H10         4.1972   -0.5660   -1.0645 H         1 <0>         0.0789
     32 H11         4.4549   -0.1209    0.6367 H         1 <0>         0.0798
     33 H12         5.0348   -3.2661   -0.7212 H         1 <0>         0.4021
     34 H13         6.5042   -4.3878   -1.0489 H         1 <0>         0.1349
     35 H14         8.6715   -5.5521   -1.3662 H         1 <0>         0.1390
     36 H15        10.4435   -5.2964    0.3176 H         1 <0>         0.1623
     37 H16         7.1779   -2.2128    3.0772 H         1 <0>         0.4284
     38 H17         9.8841   -2.0367    3.2117 H         1 <0>         0.3428
     39 H18         8.8409   -1.8395    4.4918 H         1 <0>         0.3575
@<TRIPOS>BOND
     1    1    6 ar
     2    1    2 ar
     3    1   23 1
     4    2    3 ar
     5    2   24 1
     6    3    4 ar
     7    3   25 1
     8    4   11 1
     9    4    5 ar
    10    5    6 ar
    11    5    7 1
    12    6   26 1
    13    7    8 1
    14    7   27 1
    15    7   28 1
    16    8    9 1
    17    8   29 1
    18    8   30 1
    19    9   10 1
    20    9   11 1
    21    9   12 1
    22   11   31 1
    23   11   32 1
    24   12   13 am
    25   12   33 1
    26   13   14 2
    27   13   15 1
    28   15   20 ar
    29   15   16 ar
    30   16   17 ar
    31   16   34 1
    32   17   18 ar
    33   17   35 1
    34   18   19 ar
    35   18   36 1
    36   19   20 ar
    37   20   21 1
    38   21   22 1
    39   21   37 1
    40   22   38 1
    41   22   39 1
@<TRIPOS>MOLECULE
ZINC03250439
   45    47     0     0     0
SMALL
USER_CHARGES
N-[4-[2-(2,3-dimethylphenyl)amino-4H-1,3,4-thiadiazin-5-yl]phenyl]acetamide
@<TRIPOS>ATOM
      1 C1        -14.1679    3.0763   -0.6474 C.3       1 <0>        -0.1161
      2 C2        -12.7229    2.7871   -0.9625 C.ar      1 <0>        -0.0671
      3 C3        -12.3388    1.5112   -1.3338 C.ar      1 <0>        -0.1347
      4 C4        -11.0140    1.2415   -1.6237 C.ar      1 <0>        -0.1005
      5 C5        -10.0696    2.2461   -1.5440 C.ar      1 <0>        -0.1253
      6 C6        -10.4518    3.5285   -1.1715 C.ar      1 <0>         0.1625
      7 C7        -11.7829    3.7947   -0.8748 C.ar      1 <0>        -0.1144
      8 C8        -12.2012    5.1828   -0.4637 C.3       1 <0>        -0.1174
      9 N1         -9.4989    4.5474   -1.0898 N.pl3     1 <0>        -0.6304
     10 C9         -8.2100    4.2587   -0.6699 C.2       1 <0>         0.3324
     11 N2         -7.8761    3.0351   -0.4323 N.2       1 <0>        -0.3068
     12 N3         -6.6129    2.6474   -0.0115 N.pl3     1 <0>        -0.5682
     13 C10        -5.4545    3.4175   -0.1818 C.2       1 <0>         0.2004
     14 C11        -5.4955    4.7340   -0.3950 C.2       1 <0>        -0.2741
     15 S1         -7.0473    5.5665   -0.4677 S.3       1 <0>        -0.0167
     16 C12        -4.1402    2.7461   -0.1293 C.ar      1 <0>        -0.0697
     17 C13        -4.0657    1.3686    0.0924 C.ar      1 <0>        -0.0811
     18 C14        -2.8374    0.7458    0.1412 C.ar      1 <0>        -0.1168
     19 C15        -1.6734    1.4861   -0.0304 C.ar      1 <0>         0.1558
     20 C16        -1.7432    2.8576   -0.2460 C.ar      1 <0>        -0.1405
     21 C17        -2.9680    3.4868   -0.3008 C.ar      1 <0>        -0.0727
     22 N4         -0.4281    0.8501    0.0198 N.am      1 <0>        -0.6763
     23 C18        -0.2898   -0.3999   -0.4650 C.2       1 <0>         0.5107
     24 O1         -1.2585   -0.9995   -0.8814 O.2       1 <0>        -0.5229
     25 C19         1.0683   -1.0525   -0.4896 C.3       1 <0>        -0.1724
     26 H1        -14.3487    2.9096    0.4145 H         1 <0>         0.0710
     27 H2        -14.3935    4.1133   -0.8960 H         1 <0>         0.0686
     28 H3        -14.8069    2.4151   -1.2329 H         1 <0>         0.0675
     29 H4        -13.0754    0.7240   -1.3976 H         1 <0>         0.1217
     30 H5        -10.7175    0.2442   -1.9133 H         1 <0>         0.1232
     31 H6         -9.0351    2.0349   -1.7713 H         1 <0>         0.1394
     32 H7        -12.4735    5.7574   -1.3490 H         1 <0>         0.0704
     33 H8        -13.0583    5.1204    0.2068 H         1 <0>         0.0737
     34 H9        -11.3743    5.6747    0.0486 H         1 <0>         0.0636
     35 H10        -9.7395    5.4567   -1.3269 H         1 <0>         0.4237
     36 H11        -6.5271    1.7892    0.4324 H         1 <0>         0.4305
     37 H12        -4.5781    5.2892   -0.5234 H         1 <0>         0.1702
     38 H13        -4.9696    0.7927    0.2251 H         1 <0>         0.1271
     39 H14        -2.7790   -0.3189    0.3125 H         1 <0>         0.1439
     40 H15        -0.8365    3.4302   -0.3744 H         1 <0>         0.1338
     41 H16        -3.0216    4.5518   -0.4724 H         1 <0>         0.1362
     42 H17         0.3347    1.3072    0.4070 H         1 <0>         0.4142
     43 H18         1.2289   -1.5925    0.4436 H         1 <0>         0.0996
     44 H19         1.1216   -1.7491   -1.3262 H         1 <0>         0.0995
     45 H20         1.8368   -0.2880   -0.6038 H         1 <0>         0.0844
@<TRIPOS>BOND
     1    1    2 1
     2    1   26 1
     3    1   27 1
     4    1   28 1
     5    2    7 ar
     6    2    3 ar
     7    3    4 ar
     8    3   29 1
     9    4    5 ar
    10    4   30 1
    11    5    6 ar
    12    5   31 1
    13    6    7 ar
    14    6    9 1
    15    7    8 1
    16    8   32 1
    17    8   33 1
    18    8   34 1
    19    9   10 1
    20    9   35 1
    21   10   15 1
    22   10   11 2
    23   11   12 1
    24   12   13 1
    25   12   36 1
    26   13   14 2
    27   13   16 1
    28   14   15 1
    29   14   37 1
    30   16   21 ar
    31   16   17 ar
    32   17   18 ar
    33   17   38 1
    34   18   19 ar
    35   18   39 1
    36   19   20 ar
    37   19   22 1
    38   20   21 ar
    39   20   40 1
    40   21   41 1
    41   22   23 am
    42   22   42 1
    43   23   24 2
    44   23   25 1
    45   25   43 1
    46   25   44 1
    47   25   45 1
@<TRIPOS>MOLECULE
ZINC19756364
   50    52     0     0     0
SMALL
USER_CHARGES
2-(6-amino-2,2-dimethyl-3H-1,4-benzoxazin-4-yl)-N-(2,5-dimethylphenyl)acetamide
@<TRIPOS>ATOM
      1 C1         -2.1386   -0.2983    6.7286 C.3       1 <0>        -0.1160
      2 C2         -3.0947   -0.3886    5.5672 C.ar      1 <0>        -0.0729
      3 C3         -4.4541   -0.2473    5.7790 C.ar      1 <0>        -0.1329
      4 C4         -5.3346   -0.3303    4.7163 C.ar      1 <0>        -0.1010
      5 C5         -4.8587   -0.5548    3.4391 C.ar      1 <0>        -0.1213
      6 C6         -3.4945   -0.6966    3.2230 C.ar      1 <0>         0.1517
      7 C7         -2.6130   -0.6179    4.2935 C.ar      1 <0>        -0.1188
      8 N1         -3.0092   -0.9240    1.9305 N.am      1 <0>        -0.6826
      9 C8         -1.8143   -0.4217    1.5612 C.2       1 <0>         0.4841
     10 O1         -1.1207    0.1527    2.3736 O.2       1 <0>        -0.5020
     11 C9         -1.3401   -0.5738    0.1389 C.3       1 <0>         0.0342
     12 N2          0.0388   -0.0797    0.0270 N.pl3     1 <0>        -0.4617
     13 C10         0.0875    1.3802    0.1684 C.3       1 <0>         0.0141
     14 C11         1.5563    1.8232    0.1664 C.3       1 <0>         0.1165
     15 O2          2.1905    1.2486    1.3137 O.3       1 <0>        -0.3086
     16 C12         1.9334   -0.0668    1.5604 C.ar      1 <0>         0.0485
     17 C13         0.8783   -0.7259    0.9399 C.ar      1 <0>         0.1113
     18 C14         0.6419   -2.0659    1.2265 C.ar      1 <0>        -0.2146
     19 C15         1.4553   -2.7413    2.1241 C.ar      1 <0>         0.2235
     20 C16         2.5095   -2.0789    2.7382 C.ar      1 <0>        -0.1948
     21 C17         2.7458   -0.7472    2.4555 C.ar      1 <0>        -0.0761
     22 N3          1.2139   -4.0895    2.4101 N.pl3     1 <0>        -0.9010
     23 C18         2.2445    1.3288   -1.1076 C.3       1 <0>        -0.1652
     24 C19         1.6368    3.3493    0.2405 C.3       1 <0>        -0.1406
     25 C20        -5.8192   -0.6452    2.2813 C.3       1 <0>        -0.1116
     26 H1         -2.7029   -0.1134    7.6545 H         1 <0>         0.0658
     27 H2         -1.4322    0.5276    6.5586 H         1 <0>         0.0708
     28 H3         -1.5829   -1.2432    6.8204 H         1 <0>         0.0689
     29 H4         -4.8286   -0.0721    6.7767 H         1 <0>         0.1218
     30 H5         -6.3956   -0.2199    4.8850 H         1 <0>         0.1245
     31 H6         -1.5517   -0.7325    4.1294 H         1 <0>         0.1395
     32 H7         -3.6029   -1.5128    1.2158 H         1 <0>         0.4304
     33 H8         -1.3736   -1.6354   -0.1472 H         1 <0>         0.1156
     34 H9         -1.9930    0.0068   -0.5294 H         1 <0>         0.1162
     35 H10        -0.4459    1.8480   -0.6722 H         1 <0>         0.0930
     36 H11        -0.3908    1.6731    1.1147 H         1 <0>         0.0796
     37 H12        -0.1778   -2.5822    0.7490 H         1 <0>         0.1164
     38 H13         3.1442   -2.6040    3.4367 H         1 <0>         0.1217
     39 H14         3.5668   -0.2336    2.9338 H         1 <0>         0.1273
     40 H15         1.8593   -4.6248    3.1221 H         1 <0>         0.4151
     41 H16         0.3787   -4.6141    1.9230 H         1 <0>         0.4109
     42 H17         3.2968    1.6491   -1.1038 H         1 <0>         0.0631
     43 H18         1.7358    1.7513   -1.9867 H         1 <0>         0.0693
     44 H19         2.1956    0.2306   -1.1482 H         1 <0>         0.0695
     45 H20         2.6916    3.6613    0.2388 H         1 <0>         0.0721
     46 H21         1.1529    3.6975    1.1649 H         1 <0>         0.0667
     47 H22         1.1237    3.7862   -0.6289 H         1 <0>         0.0778
     48 H23        -5.2580   -0.8259    1.3526 H         1 <0>         0.0588
     49 H24        -6.3783    0.2981    2.1942 H         1 <0>         0.0718
     50 H25        -6.5223   -1.4738    2.4520 H         1 <0>         0.0714
@<TRIPOS>BOND
     1    1    2 1
     2    1   26 1
     3    1   27 1
     4    1   28 1
     5    2    7 ar
     6    2    3 ar
     7    3    4 ar
     8    3   29 1
     9    4    5 ar
    10    4   30 1
    11    5    6 ar
    12    5   25 1
    13    6    7 ar
    14    6    8 1
    15    7   31 1
    16    8    9 am
    17    8   32 1
    18    9   10 2
    19    9   11 1
    20   11   12 1
    21   11   33 1
    22   11   34 1
    23   12   17 1
    24   12   13 1
    25   13   14 1
    26   13   35 1
    27   13   36 1
    28   14   15 1
    29   14   23 1
    30   14   24 1
    31   15   16 1
    32   16   21 ar
    33   16   17 ar
    34   17   18 ar
    35   18   19 ar
    36   18   37 1
    37   19   20 ar
    38   19   22 1
    39   20   21 ar
    40   20   38 1
    41   21   39 1
    42   22   40 1
    43   22   41 1
    44   23   42 1
    45   23   43 1
    46   23   44 1
    47   24   45 1
    48   24   46 1
    49   24   47 1
    50   25   48 1
    51   25   49 1
    52   25   50 1
@<TRIPOS>MOLECULE
ZINC49234449
   32    34     0     0     0
SMALL
USER_CHARGES

@<TRIPOS>ATOM
      1 C1         -0.0167    1.3781    0.0096 C.ar      1 <0>        -0.2096
      2 C2          1.1774    2.0876    0.0020 C.ar      1 <0>         0.2944
      3 C3          2.3874    1.4056   -0.0132 C.ar      1 <0>        -0.2095
      4 C4          2.4002    0.0234   -0.0207 C.ar      1 <0>         0.1125
      5 C5          1.2090   -0.6809   -0.0136 C.ar      1 <0>        -0.7000
      6 C6          0.0021   -0.0041    0.0020 C.ar      1 <0>         0.1126
      7 Cl1        -1.4898   -0.8916    0.0115 Cl        1 <0>        -0.0098
      8 S1          1.2291   -2.4428   -0.0238 S.o2      1 <0>         2.6450
      9 O1         -0.0166   -2.8600   -0.5654 O.2       1 <0>        -0.9452
     10 O2          2.4738   -2.8314   -0.5886 O.2       1 <0>        -0.9453
     11 N1          1.2495   -2.9414    1.5552 N.2       1 <0>        -0.9661
     12 C7          1.2668   -4.2206    1.8381 C.2       1 <0>         0.5065
     13 N2          1.2798   -4.8434    3.0674 N.pl3     1 <0>        -0.6078
     14 C8          1.2971   -6.2070    3.1058 C.2       1 <0>         0.1215
     15 C9          1.3018   -6.9098    1.9732 C.2       1 <0>        -0.1841
     16 S2          1.2721   -5.6247    0.7337 S.3       1 <0>        -0.0169
     17 C10         1.3116   -6.9209    4.4329 C.3       1 <0>        -0.1106
     18 C11         1.1027   -6.0765    5.6916 C.3       1 <0>        -0.1750
     19 C12         2.4874   -6.6432    5.3717 C.3       1 <0>        -0.1611
     20 Cl2         3.9120   -0.8297   -0.0397 Cl        1 <0>        -0.0100
     21 N3          1.1615    3.4841    0.0092 N.pl3     1 <0>        -0.8535
     22 H1         -0.9588    1.9057    0.0259 H         1 <0>         0.1487
     23 H2          3.3173    1.9548   -0.0195 H         1 <0>         0.1487
     24 H3          1.3154   -7.9814    1.8395 H         1 <0>         0.2122
     25 H4          0.8983   -7.9295    4.4287 H         1 <0>         0.1422
     26 H5          0.9547   -5.0047    5.5598 H         1 <0>         0.0943
     27 H6          0.5516   -6.5295    6.5158 H         1 <0>         0.1126
     28 H7          2.8474   -7.4690    5.9854 H         1 <0>         0.1116
     29 H8          3.2505   -5.9441    5.0294 H         1 <0>         0.1001
     30 H9          0.3160    3.9595    0.0195 H         1 <0>         0.4090
     31 H10         1.9959    3.9787    0.0039 H         1 <0>         0.4090
     32 H11         1.2769   -4.3241    3.8866 H         1 <0>         0.4237
@<TRIPOS>BOND
     1    1    6 ar
     2    1    2 ar
     3    1   22 1
     4    2    3 ar
     5    2   21 1
     6    3    4 ar
     7    3   23 1
     8    4    5 ar
     9    4   20 1
    10    5    6 ar
    11    5    8 1
    12    6    7 1
    13    8    9 2
    14    8   10 2
    15    8   11 1
    16   11   12 2
    17   12   16 1
    18   12   13 1
    19   13   14 1
    20   13   32 1
    21   14   15 2
    22   14   17 1
    23   15   16 1
    24   15   24 1
    25   17   19 1
    26   17   18 1
    27   17   25 1
    28   18   19 1
    29   18   26 1
    30   18   27 1
    31   19   28 1
    32   19   29 1
    33   21   30 1
    34   21   31 1
@<TRIPOS>MOLECULE
ZINC03100187
   32    35     0     0     0
SMALL
USER_CHARGES

@<TRIPOS>ATOM
      1 C1         -0.0166    1.3753    0.0096 C.ar      1 <0>        -0.1249
      2 C2          1.1693    2.0890    0.0021 C.ar      1 <0>        -0.0839
      3 C3          2.3827    1.4272   -0.0130 C.ar      1 <0>        -0.1451
      4 C4          2.4183    0.0424   -0.0207 C.ar      1 <0>         0.1489
      5 C5          1.2209   -0.6833   -0.0132 C.ar      1 <0>        -0.0380
      6 C6          0.0021   -0.0041    0.0020 C.ar      1 <0>        -0.0736
      7 C7          1.2477   -2.1608   -0.0218 C.2       1 <0>         0.1491
      8 N1          2.2878   -2.9454   -0.0306 N.2       1 <0>        -0.2050
      9 N2          2.1910   -4.3250   -0.0387 N.pl3     1 <0>        -0.5873
     10 C8          0.8234   -4.8441   -0.0361 C.3       1 <0>         0.1885
     11 S1         -0.1399   -3.2890   -0.0147 S.3       1 <0>        -0.1276
     12 C9          0.4983   -5.6805   -1.2324 C.ar      1 <0>        -0.1505
     13 C10         0.5642   -5.4734   -2.5921 C.ar      1 <0>         0.0005
     14 C11         0.1802   -6.4752   -3.4665 C.ar      1 <0>        -0.1169
     15 C12        -0.2696   -7.6865   -2.9708 C.ar      1 <0>        -0.0352
     16 C13        -0.3377   -7.8988   -1.6098 C.ar      1 <0>        -0.1329
     17 C14         0.0451   -6.8962   -0.7227 C.ar      1 <0>         0.1779
     18 N3          0.0634   -6.8718    0.6750 N.am      1 <0>        -0.6559
     19 C15         0.5094   -5.6925    1.1566 C.2       1 <0>         0.5406
     20 O1          0.6316   -5.3822    2.3228 O.2       1 <0>        -0.4508
     21 Br1         0.2703   -6.1897   -5.3336 Br        1 <0>        -0.0306
     22 O2          3.6102   -0.6090   -0.0360 O.3       1 <0>        -0.4809
     23 H1         -0.9603    1.9003    0.0259 H         1 <0>         0.1353
     24 H2          1.1465    3.1688    0.0077 H         1 <0>         0.1341
     25 H3          3.3042    1.9904   -0.0191 H         1 <0>         0.1379
     26 H4         -0.9253   -0.5575    0.0082 H         1 <0>         0.1314
     27 H5          2.9696   -4.9034   -0.0459 H         1 <0>         0.4435
     28 H6          0.9158   -4.5275   -2.9769 H         1 <0>         0.1403
     29 H7         -0.5688   -8.4687   -3.6527 H         1 <0>         0.1489
     30 H8         -0.6899   -8.8467   -1.2305 H         1 <0>         0.1442
     31 H9         -0.2122   -7.6156    1.2333 H         1 <0>         0.4239
     32 H10         3.9641   -0.8023    0.8429 H         1 <0>         0.3939
@<TRIPOS>BOND
     1    1    6 ar
     2    1    2 ar
     3    1   23 1
     4    2    3 ar
     5    2   24 1
     6    3    4 ar
     7    3   25 1
     8    4    5 ar
     9    4   22 1
    10    5    6 ar
    11    5    7 1
    12    6   26 1
    13    7   11 1
    14    7    8 2
    15    8    9 1
    16    9   10 1
    17    9   27 1
    18   10   19 1
    19   10   11 1
    20   10   12 1
    21   12   17 ar
    22   12   13 ar
    23   13   14 ar
    24   13   28 1
    25   14   15 ar
    26   14   21 1
    27   15   16 ar
    28   15   29 1
    29   16   17 ar
    30   16   30 1
    31   17   18 1
    32   18   19 am
    33   18   31 1
    34   19   20 2
    35   22   32 1
@<TRIPOS>MOLECULE
ZINC53546093
   47    48     0     0     0
SMALL
USER_CHARGES

@<TRIPOS>ATOM
      1 C1         -0.0810    1.5021    0.0123 C.3       1 <0>        -0.1219
      2 C2         -0.0487   -0.0045    0.0036 C.ar      1 <0>        -0.0632
      3 C3         -0.0373   -0.6860   -1.2012 C.ar      1 <0>        -0.1225
      4 C4         -0.0078   -2.0643   -1.2174 C.ar      1 <0>        -0.0546
      5 C5          0.0106   -2.7738   -0.0123 C.ar      1 <0>        -0.0913
      6 C6         -0.0010   -2.0782    1.2005 C.ar      1 <0>        -0.0886
      7 C7         -0.0249   -0.6993    1.2001 C.ar      1 <0>        -0.0966
      8 C8         -0.0308    0.0527    2.5061 C.3       1 <0>        -0.1176
      9 C9          0.0417   -4.2455   -0.0207 C.2       1 <0>         0.0041
     10 C10         0.0594   -4.9261    1.1431 C.2       1 <0>        -0.2307
     11 C11         0.0903   -6.3896    1.1347 C.2       1 <0>         0.5518
     12 O1          0.0999   -6.9920    0.0771 O.2       1 <0>        -0.5238
     13 N1          0.1080   -7.0700    2.2980 N.am      1 <0>        -0.6656
     14 C12         0.0209   -8.4654    2.2931 C.ar      1 <0>         0.1312
     15 C13        -0.5819   -9.1216    1.2273 C.ar      1 <0>        -0.0692
     16 C14        -0.6663  -10.4998    1.2256 C.ar      1 <0>        -0.1219
     17 C15        -0.1515  -11.2270    2.2835 C.ar      1 <0>        -0.0317
     18 C16         0.4491  -10.5770    3.3459 C.ar      1 <0>        -0.6565
     19 C17         0.5419   -9.1989    3.3511 C.ar      1 <0>        -0.0192
     20 C18         1.2022   -8.4917    4.5065 C.3       1 <0>        -0.1490
     21 S1          1.1027  -11.5082    4.6914 S.o2      1 <0>         2.7036
     22 O2          0.6054  -10.9085    5.8798 O.2       1 <0>        -0.9582
     23 O3          0.8859  -12.8778    4.3808 O.2       1 <0>        -0.9630
     24 N2          2.7426  -11.2777    4.6954 N.pl3     1 <0>        -1.2507
     25 C19         0.0040   -2.8043   -2.5301 C.3       1 <0>        -0.1247
     26 H1          0.9386    1.8874    0.0067 H         1 <0>         0.0746
     27 H2         -0.6092    1.8593   -0.8718 H         1 <0>         0.0692
     28 H3         -0.5957    1.8494    0.9081 H         1 <0>         0.0717
     29 H4         -0.0520   -0.1366   -2.1309 H         1 <0>         0.1274
     30 H5          0.0128   -2.6192    2.1352 H         1 <0>         0.1275
     31 H6         -1.0597    0.2122    2.8288 H         1 <0>         0.0720
     32 H7          0.5011   -0.5262    3.2611 H         1 <0>         0.0670
     33 H8          0.4618    1.0159    2.3730 H         1 <0>         0.0707
     34 H9          0.0503   -4.7801   -0.9591 H         1 <0>         0.1399
     35 H10         0.0508   -4.3916    2.0814 H         1 <0>         0.1332
     36 H11         0.1811   -6.5915    3.1386 H         1 <0>         0.4150
     37 H12        -0.9843   -8.5543    0.4010 H         1 <0>         0.1557
     38 H13        -1.1350  -11.0106    0.3975 H         1 <0>         0.1397
     39 H14        -0.2191  -12.3049    2.2799 H         1 <0>         0.1481
     40 H15         0.4563   -8.2663    5.2687 H         1 <0>         0.1007
     41 H16         1.9741   -9.1330    4.9318 H         1 <0>         0.0779
     42 H17         1.6537   -7.5641    4.1546 H         1 <0>         0.0799
     43 H18         3.1541  -10.7093    4.0258 H         1 <0>         0.4171
     44 H19         3.2916  -11.7110    5.3675 H         1 <0>         0.4224
     45 H20         1.0343   -2.9607   -2.8497 H         1 <0>         0.0766
     46 H21        -0.4889   -3.7688   -2.4079 H         1 <0>         0.0720
     47 H22        -0.5248   -2.2187   -3.2821 H         1 <0>         0.0718
@<TRIPOS>BOND
     1    1    2 1
     2    1   26 1
     3    1   27 1
     4    1   28 1
     5    2    7 ar
     6    2    3 ar
     7    3    4 ar
     8    3   29 1
     9    4    5 ar
    10    4   25 1
    11    5    6 ar
    12    5    9 1
    13    6    7 ar
    14    6   30 1
    15    7    8 1
    16    8   31 1
    17    8   32 1
    18    8   33 1
    19    9   10 2
    20    9   34 1
    21   10   11 1
    22   10   35 1
    23   11   12 2
    24   11   13 am
    25   13   14 1
    26   13   36 1
    27   14   19 ar
    28   14   15 ar
    29   15   16 ar
    30   15   37 1
    31   16   17 ar
    32   16   38 1
    33   17   18 ar
    34   17   39 1
    35   18   19 ar
    36   18   21 1
    37   19   20 1
    38   20   40 1
    39   20   41 1
    40   20   42 1
    41   21   22 2
    42   21   23 2
    43   21   24 1
    44   24   43 1
    45   24   44 1
    46   25   45 1
    47   25   46 1
    48   25   47 1
@<TRIPOS>MOLECULE
ZINC00863782
   38    40     0     0     0
SMALL
USER_CHARGES
2-[[2-(1H-benzoimidazol-2-ylsulfanyl)acetyl]aminoiminomethyl]benzoic acid
@<TRIPOS>ATOM
      1 C1          0.0586    1.0792   -0.0025 C.ar      1 <0>        -0.1416
      2 C2         -1.1867    1.6869    0.0273 C.ar      1 <0>        -0.1166
      3 C3         -1.2941    3.0618    0.0513 C.ar      1 <0>        -0.1021
      4 C4         -0.1439    3.8518    0.0341 C.ar      1 <0>        -0.0593
      5 C5          1.1231    3.2337   -0.0020 C.ar      1 <0>        -0.0433
      6 C6          1.2085    1.8405   -0.0200 C.ar      1 <0>        -0.1030
      7 C7          2.3467    4.0517   -0.0202 C.2       1 <0>         0.0714
      8 N1          2.2623    5.3443   -0.1138 N.2       1 <0>        -0.1364
      9 N2          3.4269    6.1229   -0.1311 N.am      1 <0>        -0.5857
     10 C8          3.3394    7.4643   -0.2283 C.2       1 <0>         0.5348
     11 O1          2.2524    7.9975   -0.3009 O.2       1 <0>        -0.4495
     12 C9          4.5922    8.3018   -0.2469 C.3       1 <0>        -0.1357
     13 S1          4.1467   10.0507   -0.3843 S.3       1 <0>         0.0903
     14 C10         5.7524   10.7764   -0.3836 C.2       1 <0>         0.2542
     15 N3          6.0088   12.1157   -0.4696 N.pl3     1 <0>        -0.5867
     16 H1          5.3298   12.8462   -0.5429 H         1 <0>         0.4338
     17 C11         7.3849   12.2731   -0.4363 C.ar      1 <0>         0.0529
     18 C12         8.2280   13.3727   -0.4861 C.ar      1 <0>        -0.1094
     19 C13         9.5948   13.1933   -0.4291 C.ar      1 <0>        -0.1059
     20 C14        10.1323   11.9192   -0.3216 C.ar      1 <0>        -0.1271
     21 C15         9.3101   10.8159   -0.2709 C.ar      1 <0>        -0.0682
     22 C16         7.9237   10.9805   -0.3280 C.ar      1 <0>         0.0582
     23 N4          6.8788   10.1125   -0.2949 N.2       1 <0>        -0.5000
     24 C17        -0.2526    5.3217    0.0530 C.2       1 <0>         0.4983
     25 O2          0.3210    5.9623    0.9116 O.co2     1 <0>        -0.5925
     26 H2          0.1290    0.0016   -0.0165 H         1 <0>         0.1173
     27 H3         -2.0796    1.0793    0.0360 H         1 <0>         0.1168
     28 H4         -2.2684    3.5270    0.0790 H         1 <0>         0.1234
     29 H5          2.1747    1.3589   -0.0481 H         1 <0>         0.1198
     30 H6          3.3146    3.5770    0.0444 H         1 <0>         0.1115
     31 H7          4.2963    5.6965   -0.0731 H         1 <0>         0.3730
     32 H8          5.1507    8.1405    0.6751 H         1 <0>         0.1272
     33 H9          5.2079    8.0156   -1.0995 H         1 <0>         0.1269
     34 H10         7.8157   14.3674   -0.5691 H         1 <0>         0.1230
     35 H11        10.2505   14.0506   -0.4680 H         1 <0>         0.1295
     36 H12        11.2038   11.7915   -0.2771 H         1 <0>         0.1291
     37 H13         9.7353    9.8267   -0.1876 H         1 <0>         0.1291
     38 O3         -0.9880    5.9551   -0.8819 O.co2     1 <0>        -0.7577
@<TRIPOS>BOND
     1    1    6 ar
     2    1    2 ar
     3    1   26 1
     4    2    3 ar
     5    2   27 1
     6    3    4 ar
     7    3   28 1
     8    4    5 ar
     9    4   24 1
    10    5    6 ar
    11    5    7 1
    12    6   29 1
    13    7    8 2
    14    7   30 1
    15    8    9 1
    16    9   10 am
    17    9   31 1
    18   10   11 2
    19   10   12 1
    20   12   13 1
    21   12   32 1
    22   12   33 1
    23   13   14 1
    24   14   23 2
    25   14   15 1
    26   15   16 1
    27   15   17 1
    28   17   22 ar
    29   17   18 ar
    30   18   19 ar
    31   18   34 1
    32   19   20 ar
    33   19   35 1
    34   20   21 ar
    35   20   36 1
    36   21   22 ar
    37   21   37 1
    38   22   23 1
    39   24   25 2
    40   24   38 1
@<TRIPOS>MOLECULE
ZINC35657501
   37    39     0     0     0
SMALL
USER_CHARGES

@<TRIPOS>ATOM
      1 C1         -0.0169    0.6009    2.7714 C.ar      1 <0>        -0.1117
      2 C2          1.1572    1.1403    3.2637 C.ar      1 <0>        -0.1061
      3 C3          2.3530    0.4707    3.0868 C.ar      1 <0>        -0.1094
      4 C4          2.3752   -0.7401    2.4172 C.ar      1 <0>        -0.0310
      5 C5          1.2002   -1.2794    1.9253 C.ar      1 <0>        -0.0831
      6 C6          0.0047   -0.6084    2.1025 C.ar      1 <0>        -0.0836
      7 C7          1.2236   -2.5978    1.1956 C.3       1 <0>         0.1015
      8 O1         -0.1152   -3.0088    0.9115 O.3       1 <0>        -0.3037
      9 C8         -0.2701   -4.1411    0.1773 C.ar      1 <0>         0.1523
     10 C9          0.8326   -4.9098   -0.1562 C.ar      1 <0>        -0.2059
     11 C10         0.6741   -6.0622   -0.9031 C.ar      1 <0>        -0.0718
     12 C11        -0.5846   -6.4569   -1.3229 C.ar      1 <0>        -0.1464
     13 C12        -1.6934   -5.7029   -1.0000 C.ar      1 <0>        -0.0896
     14 C13        -1.5471   -4.5394   -0.2410 C.ar      1 <0>        -0.1141
     15 C14        -2.7281   -3.7322    0.1129 C.2       1 <0>         0.0756
     16 N1         -3.9130   -4.2622    0.0716 N.2       1 <0>        -0.1773
     17 N2         -4.0633   -5.6511    0.1773 N.pl3     1 <0>        -0.5499
     18 C15        -5.3095   -6.2303   -0.0121 C.2       1 <0>         0.4338
     19 N3         -6.3984   -5.6083   -0.3945 N.2       1 <0>        -0.3423
     20 N4         -7.4334   -6.5500   -0.4632 N.2       1 <0>        -0.3573
     21 C16        -6.9428   -7.7172   -0.1204 C.2       1 <0>         0.4082
     22 S1         -7.8360   -9.2341   -0.0442 S.3       1 <0>        -0.8133
     23 N5         -5.6165   -7.5514    0.1616 N.pl3     1 <0>        -0.6331
     24 Cl1         3.8771   -1.5816    2.1941 Cl        1 <0>        -0.0684
     25 H1         -0.9518    1.1225    2.9135 H         1 <0>         0.1338
     26 H2          1.1397    2.0853    3.7863 H         1 <0>         0.1335
     27 H3          3.2701    0.8924    3.4708 H         1 <0>         0.1356
     28 H4         -0.9127   -1.0293    1.7181 H         1 <0>         0.1448
     29 H5          1.7753   -2.4866    0.2621 H         1 <0>         0.0829
     30 H6          1.7100   -3.3489    1.8179 H         1 <0>         0.0818
     31 H7          1.8179   -4.6082    0.1674 H         1 <0>         0.1308
     32 H8          1.5373   -6.6579   -1.1608 H         1 <0>         0.1279
     33 H9         -0.6988   -7.3587   -1.9060 H         1 <0>         0.1291
     34 H10        -2.6737   -6.0139   -1.3297 H         1 <0>         0.1386
     35 H11        -2.6082   -2.6998    0.4066 H         1 <0>         0.1854
     36 H12        -3.2959   -6.2076    0.3829 H         1 <0>         0.3954
     37 H13        -5.0010   -8.2481    0.4384 H         1 <0>         0.4072
@<TRIPOS>BOND
     1    1    6 ar
     2    1    2 ar
     3    1   25 1
     4    2    3 ar
     5    2   26 1
     6    3    4 ar
     7    3   27 1
     8    4    5 ar
     9    4   24 1
    10    5    6 ar
    11    5    7 1
    12    6   28 1
    13    7    8 1
    14    7   29 1
    15    7   30 1
    16    8    9 1
    17    9   14 ar
    18    9   10 ar
    19   10   11 ar
    20   10   31 1
    21   11   12 ar
    22   11   32 1
    23   12   13 ar
    24   12   33 1
    25   13   14 ar
    26   13   34 1
    27   14   15 1
    28   15   16 2
    29   15   35 1
    30   16   17 1
    31   17   18 1
    32   17   36 1
    33   18   23 1
    34   18   19 2
    35   19   20 1
    36   20   21 2
    37   21   22 1
    38   21   23 1
    39   23   37 1
@<TRIPOS>MOLECULE
ZINC08529661
   40    43     0     0     0
SMALL
USER_CHARGES

@<TRIPOS>ATOM
      1 C1         -0.0167    1.3786    0.0096 C.ar      1 <0>        -0.1494
      2 C2          1.1696    2.0892    0.0021 C.ar      1 <0>        -0.0986
      3 C3          2.3774    1.4194   -0.0134 C.ar      1 <0>        -0.1347
      4 C4          2.3996    0.0309   -0.0211 C.ar      1 <0>         0.1786
      5 C5          1.2065   -0.6797   -0.0130 C.ar      1 <0>        -0.1404
      6 C6          0.0021   -0.0041    0.0020 C.ar      1 <0>        -0.0948
      7 N1          3.6229   -0.6514   -0.0373 N.pl3     1 <0>        -0.2208
      8 C7          3.7599   -2.0057   -0.0513 C.2       1 <0>        -0.2629
      9 C8          5.0912   -2.2712   -0.0644 C.2       1 <0>         0.2428
     10 C9          5.7298   -1.0047   -0.0573 C.2       1 <0>        -0.1179
     11 N2          4.7782   -0.0900   -0.0466 N.2       1 <0>        -0.2776
     12 C10         7.1833   -0.7567   -0.0657 C.2       1 <0>         0.6271
     13 O1          7.9601   -1.6928   -0.0801 O.2       1 <0>        -0.4853
     14 N3          7.6512    0.5072   -0.0574 N.am      1 <0>        -0.5813
     15 N4          9.0322    0.7430   -0.0654 N.2       1 <0>        -0.2170
     16 C11         9.4833    1.9613   -0.0574 C.2       1 <0>         0.1094
     17 C12        10.9340    2.2089   -0.0658 C.2       1 <0>        -0.1249
     18 C13        11.5523    3.4207   -0.0531 C.2       1 <0>         0.0795
     19 N5         12.9042    3.2471   -0.0660 N.pl3     1 <0>        -0.5894
     20 H1         13.5556    3.9657   -0.0602 H         1 <0>         0.4163
     21 C14        13.2129    1.9035   -0.0877 C.ar      1 <0>         0.0886
     22 C15        12.0011    1.1926   -0.0830 C.ar      1 <0>        -0.0824
     23 C16        12.0091   -0.2004   -0.0970 C.ar      1 <0>        -0.0526
     24 C17        13.2098   -0.8754   -0.1123 C.ar      1 <0>        -0.1494
     25 C18        14.4073   -0.1747   -0.1137 C.ar      1 <0>        -0.0968
     26 C19        14.4147    1.2032   -0.1074 C.ar      1 <0>        -0.1403
     27 O2          5.6872   -3.4944   -0.0804 O.3       1 <0>        -0.7006
     28 H2         -0.9598    1.9047    0.0260 H         1 <0>         0.1206
     29 H3          1.1517    3.1690    0.0080 H         1 <0>         0.1245
     30 H4          3.3035    1.9749   -0.0200 H         1 <0>         0.1341
     31 H5          1.2205   -1.7596   -0.0193 H         1 <0>         0.1328
     32 H6         -0.9261   -0.5562    0.0079 H         1 <0>         0.1261
     33 H7          2.9605   -2.7318   -0.0519 H         1 <0>         0.1545
     34 H8          7.0318    1.2537   -0.0460 H         1 <0>         0.3864
     35 H9          8.7937    2.7924   -0.0447 H         1 <0>         0.1147
     36 H10        11.0482    4.3757   -0.0360 H         1 <0>         0.1771
     37 H11        11.0784   -0.7484   -0.0956 H         1 <0>         0.1413
     38 H12        13.2190   -1.9553   -0.1228 H         1 <0>         0.1239
     39 H13        15.3427   -0.7144   -0.1254 H         1 <0>         0.1225
     40 H14        15.3525    1.7387   -0.1069 H         1 <0>         0.1162
@<TRIPOS>BOND
     1    1    6 ar
     2    1    2 ar
     3    1   28 1
     4    2    3 ar
     5    2   29 1
     6    3    4 ar
     7    3   30 1
     8    4    5 ar
     9    4    7 1
    10    5    6 ar
    11    5   31 1
    12    6   32 1
    13    7   11 1
    14    7    8 1
    15    8    9 2
    16    8   33 1
    17    9   10 1
    18    9   27 1
    19   10   11 2
    20   10   12 1
    21   12   13 2
    22   12   14 am
    23   14   15 1
    24   14   34 1
    25   15   16 2
    26   16   17 1
    27   16   35 1
    28   17   22 1
    29   17   18 2
    30   18   19 1
    31   18   36 1
    32   19   20 1
    33   19   21 1
    34   21   26 ar
    35   21   22 ar
    36   22   23 ar
    37   23   24 ar
    38   23   37 1
    39   24   25 ar
    40   24   38 1
    41   25   26 ar
    42   25   39 1
    43   26   40 1
@<TRIPOS>MOLECULE
ZINC05446480
   35    37     0     0     0
SMALL
USER_CHARGES

@<TRIPOS>ATOM
      1 C1         -0.0167    1.3699   -0.0506 C.ar      1 <0>        -0.0943
      2 C2          1.1654    2.0812   -0.0571 C.ar      1 <0>        -0.1139
      3 C3          2.3861    1.4025   -0.0527 C.ar      1 <0>         0.0044
      4 C4          2.4018    0.0059   -0.0416 C.ar      1 <0>        -0.1261
      5 C5          1.2110   -0.6943   -0.0352 C.ar      1 <0>         0.0962
      6 C6          0.0038   -0.0130   -0.0397 C.ar      1 <0>        -0.1564
      7 F1          1.2230   -2.0452   -0.0249 F         1 <0>        -0.1408
      8 C7          3.6532    2.1573   -0.0601 C.2       1 <0>         0.0446
      9 N1          4.7858    1.5239   -0.0559 N.2       1 <0>        -0.1998
     10 N2          5.9893    2.2410   -0.0630 N.am      1 <0>        -0.5749
     11 C8          7.1657    1.5831   -0.0587 C.2       1 <0>         0.6080
     12 O1          7.1844    0.3704    0.0441 O.2       1 <0>        -0.5147
     13 C9          8.4232    2.3285   -0.1779 C.2       1 <0>        -0.4867
     14 C10         8.4171    3.7513   -0.1656 C.2       1 <0>         0.4354
     15 C11         9.7116    4.4470   -0.2889 C.ar      1 <0>        -0.1867
     16 C12         9.7828    5.8403   -0.2841 C.ar      1 <0>         0.0017
     17 C13        11.0082    6.4603   -0.4007 C.ar      1 <0>        -0.1494
     18 C14        12.1665    5.7051   -0.5229 C.ar      1 <0>        -0.0376
     19 C15        12.1101    4.3283   -0.5291 C.ar      1 <0>        -0.1810
     20 C16        10.8831    3.6828   -0.4120 C.ar      1 <0>         0.2321
     21 N3         10.8104    2.3033   -0.4165 N.pl3     1 <0>        -0.6287
     22 H1         11.6283    1.7889   -0.5023 H         1 <0>         0.4064
     23 C17         9.6328    1.6492   -0.2982 C.2       1 <0>         0.5237
     24 O2          9.6290    0.3020   -0.3033 O.3       1 <0>        -0.6199
     25 Br1        11.1118    8.3485   -0.3949 Br        1 <0>        -0.0638
     26 O3          7.3754    4.3751   -0.0570 O.2       1 <0>        -0.5576
     27 H2         -0.9608    1.8944   -0.0495 H         1 <0>         0.1331
     28 H3          1.1469    3.1610   -0.0660 H         1 <0>         0.1335
     29 H4          3.3422   -0.5251   -0.0385 H         1 <0>         0.1484
     30 H5         -0.9247   -0.5645   -0.0347 H         1 <0>         0.1321
     31 H6          3.6384    3.2372   -0.0690 H         1 <0>         0.1184
     32 H7          5.9761    3.2108   -0.0710 H         1 <0>         0.4015
     33 H8          8.8828    6.4297   -0.1899 H         1 <0>         0.1430
     34 H9         13.1213    6.2015   -0.6144 H         1 <0>         0.1335
     35 H10        13.0176    3.7507   -0.6243 H         1 <0>         0.1363
@<TRIPOS>BOND
     1    1    6 ar
     2    1    2 ar
     3    1   27 1
     4    2    3 ar
     5    2   28 1
     6    3    4 ar
     7    3    8 1
     8    4    5 ar
     9    4   29 1
    10    5    6 ar
    11    5    7 1
    12    6   30 1
    13    8    9 2
    14    8   31 1
    15    9   10 1
    16   10   11 am
    17   10   32 1
    18   11   12 2
    19   11   13 1
    20   13   23 2
    21   13   14 1
    22   14   15 1
    23   14   26 2
    24   15   20 ar
    25   15   16 ar
    26   16   17 ar
    27   16   33 1
    28   17   18 ar
    29   17   25 1
    30   18   19 ar
    31   18   34 1
    32   19   20 ar
    33   19   35 1
    34   20   21 1
    35   21   22 1
    36   21   23 1
    37   23   24 1
@<TRIPOS>MOLECULE
ZINC65322863
   43    46     0     0     0
SMALL
USER_CHARGES

@<TRIPOS>ATOM
      1 C1         -0.0167    1.3773    0.0096 C.ar      1 <0>        -0.0784
      2 C2          1.1699    2.0872    0.0021 C.ar      1 <0>        -0.1664
      3 C3          2.3799    1.4179   -0.0130 C.ar      1 <0>        -0.1056
      4 C4          2.4064    0.0354   -0.0206 C.ar      1 <0>         0.0129
      5 C5          1.2142   -0.6807   -0.0131 C.ar      1 <0>         0.2000
      6 C6          0.0021   -0.0041    0.0020 C.ar      1 <0>        -0.1848
      7 N1          1.2364   -2.0789   -0.0212 N.pl3     1 <0>        -0.7272
      8 C7         -0.0205   -2.8315   -0.0133 C.3       1 <0>         0.1834
      9 C8          0.2782   -4.3085   -0.0245 C.2       1 <0>         0.2268
     10 C9         -0.7695   -5.2273   -0.0253 C.2       1 <0>        -0.3748
     11 C10        -0.4831   -6.5658   -0.0356 C.2       1 <0>         0.4938
     12 O1         -1.4782   -7.4818   -0.0370 O.3       1 <0>        -0.6546
     13 N2          0.8206   -6.9600   -0.0448 N.pl3     1 <0>        -0.3528
     14 C11         1.8205   -6.0289   -0.0437 C.2       1 <0>         0.5002
     15 N3          1.5276   -4.7234   -0.0390 N.2       1 <0>        -0.5604
     16 N4          2.9746   -6.6877   -0.0532 N.2       1 <0>        -0.5929
     17 C12         2.7428   -7.9990   -0.0603 C.2       1 <0>         0.4882
     18 N5          1.4441   -8.2145   -0.0555 N.2       1 <0>        -0.3856
     19 N6          3.7224   -8.9890   -0.0714 N.pl3     1 <0>        -0.7020
     20 C13         5.1394   -8.6173   -0.0757 C.3       1 <0>         0.1877
     21 C14         5.9858   -9.8641   -0.0879 C.ar      1 <0>        -0.0950
     22 C15         6.3747  -10.4468    1.1039 C.ar      1 <0>        -0.0853
     23 C16         7.1510  -11.5904    1.0933 C.ar      1 <0>        -0.1141
     24 C17         7.5387  -12.1519   -0.1102 C.ar      1 <0>        -0.0307
     25 C18         7.1491  -11.5683   -1.3026 C.ar      1 <0>        -0.1140
     26 C19         6.3681  -10.4279   -1.2908 C.ar      1 <0>        -0.0853
     27 Cl1         8.5141  -13.5879   -0.1242 Cl        1 <0>        -0.0749
     28 F1          3.5885   -0.6186   -0.0358 F         1 <0>        -0.1424
     29 H1         -0.9596    1.9036    0.0259 H         1 <0>         0.1238
     30 H2          1.1516    3.1670    0.0077 H         1 <0>         0.1228
     31 H3          3.3049    1.9754   -0.0192 H         1 <0>         0.1290
     32 H4         -0.9255   -0.5572    0.0082 H         1 <0>         0.1309
     33 H5          2.0839   -2.5505   -0.0321 H         1 <0>         0.4225
     34 H6         -0.5875   -2.5823    0.8837 H         1 <0>         0.0853
     35 H7         -0.6048   -2.5723   -0.8962 H         1 <0>         0.0853
     36 H8         -1.7947   -4.8875   -0.0175 H         1 <0>         0.1419
     37 H9          3.4664   -9.9246   -0.0763 H         1 <0>         0.4099
     38 H10         5.3563   -8.0223   -0.9628 H         1 <0>         0.0720
     39 H11         5.3647   -8.0339    0.8171 H         1 <0>         0.0720
     40 H12         6.0723  -10.0082    2.0433 H         1 <0>         0.1357
     41 H13         7.4551  -12.0453    2.0244 H         1 <0>         0.1338
     42 H14         7.4517  -12.0060   -2.2424 H         1 <0>         0.1338
     43 H15         6.0599   -9.9750   -2.2215 H         1 <0>         0.1357
@<TRIPOS>BOND
     1    1    6 ar
     2    1    2 ar
     3    1   29 1
     4    2    3 ar
     5    2   30 1
     6    3    4 ar
     7    3   31 1
     8    4    5 ar
     9    4   28 1
    10    5    6 ar
    11    5    7 1
    12    6   32 1
    13    7    8 1
    14    7   33 1
    15    8    9 1
    16    8   34 1
    17    8   35 1
    18    9   15 2
    19    9   10 1
    20   10   11 2
    21   10   36 1
    22   11   12 1
    23   11   13 1
    24   13   18 1
    25   13   14 1
    26   14   15 1
    27   14   16 2
    28   16   17 1
    29   17   18 2
    30   17   19 1
    31   19   20 1
    32   19   37 1
    33   20   21 1
    34   20   38 1
    35   20   39 1
    36   21   26 ar
    37   21   22 ar
    38   22   23 ar
    39   22   40 1
    40   23   24 ar
    41   23   41 1
    42   24   25 ar
    43   24   27 1
    44   25   26 ar
    45   25   42 1
    46   26   43 1
@<TRIPOS>MOLECULE
ZINC01078814
   47    49     0     0     0
SMALL
USER_CHARGES
4-(4-cyanophenyl)-N-(2,4-dimethylphenyl)-6-methyl-2-thioxo-3,4-dihydro-1H-pyrimidine-5-carboxamide
@<TRIPOS>ATOM
      1 C1         -8.4796    5.6038    0.6662 C.3       1 <0>        -0.1144
      2 C2         -7.0340    5.2360    0.4519 C.ar      1 <0>        -0.1000
      3 C3         -6.6508    3.9071    0.4652 C.ar      1 <0>        -0.1061
      4 C4         -5.3278    3.5664    0.2643 C.ar      1 <0>        -0.1324
      5 C5         -4.3798    4.5606    0.0583 C.ar      1 <0>         0.1401
      6 C6         -4.7679    5.8939    0.0451 C.ar      1 <0>        -0.1127
      7 C7         -6.0937    6.2277    0.2419 C.ar      1 <0>        -0.1013
      8 C8         -3.7436    6.9755   -0.1832 C.3       1 <0>        -0.1379
      9 N1         -3.0384    4.2193   -0.1411 N.am      1 <0>        -0.6623
     10 C9         -2.5784    3.0228    0.2753 C.2       1 <0>         0.5870
     11 O1         -3.3431    2.2161    0.7725 O.2       1 <0>        -0.5166
     12 C10        -1.2057    2.7039    0.1347 C.2       1 <0>        -0.2835
     13 C11        -0.7413    1.4723    0.4339 C.2       1 <0>         0.2329
     14 N2          0.5835    1.1676    0.3035 N.pl3     1 <0>        -0.6000
     15 C12         1.5060    2.0359   -0.1302 C.2       1 <0>         0.5542
     16 S1          3.1342    1.5215   -0.2538 S.2       1 <0>        -0.5790
     17 N3          1.1944    3.3017   -0.4722 N.pl3     1 <0>        -0.6444
     18 C13        -0.2095    3.7322   -0.3615 C.3       1 <0>         0.2084
     19 H1         -0.5362    4.0691   -1.3453 H         1 <0>         0.1006
     20 C14        -0.2605    4.9157    0.5699 C.ar      1 <0>        -0.0946
     21 C15         0.2152    4.7949    1.8636 C.ar      1 <0>        -0.0876
     22 C16         0.1760    5.8757    2.7200 C.ar      1 <0>        -0.0612
     23 C17        -0.3550    7.0905    2.2820 C.ar      1 <0>        -0.0092
     24 C18        -0.8382    7.2038    0.9768 C.ar      1 <0>        -0.0615
     25 C19        -0.7881    6.1166    0.1293 C.ar      1 <0>        -0.1182
     26 C20        -0.4035    8.2151    3.1671 C.1       1 <0>         0.2436
     27 N4         -0.4419    9.1073    3.8692 N.1       1 <0>        -0.3973
     28 C21        -1.6993    0.4182    0.9258 C.3       1 <0>        -0.1204
     29 H2         -8.9931    5.6345   -0.2948 H         1 <0>         0.0695
     30 H3         -8.9526    4.8599    1.3073 H         1 <0>         0.0659
     31 H4         -8.5388    6.5831    1.1412 H         1 <0>         0.0648
     32 H5         -7.3878    3.1349    0.6291 H         1 <0>         0.1241
     33 H6         -5.0299    2.5284    0.2710 H         1 <0>         0.1621
     34 H7         -6.3963    7.2644    0.2314 H         1 <0>         0.1240
     35 H8         -3.6826    7.1992   -1.2482 H         1 <0>         0.0717
     36 H9         -4.0364    7.8737    0.3605 H         1 <0>         0.0730
     37 H10        -2.7711    6.6359    0.1731 H         1 <0>         0.0740
     38 H11        -2.4390    4.8436   -0.5791 H         1 <0>         0.4052
     39 H12         0.8718    0.2707    0.5344 H         1 <0>         0.4444
     40 H13         1.8786    3.9145   -0.7841 H         1 <0>         0.4490
     41 H14         0.6220    3.8535    2.2023 H         1 <0>         0.1287
     42 H15         0.5511    5.7811    3.7283 H         1 <0>         0.1397
     43 H16        -1.2506    8.1405    0.6318 H         1 <0>         0.1434
     44 H17        -1.1617    6.2027   -0.8803 H         1 <0>         0.1400
     45 H18        -1.1543   -0.5054    1.1213 H         1 <0>         0.0722
     46 H19        -2.1755    0.7604    1.8446 H         1 <0>         0.1141
     47 H20        -2.4609    0.2370    0.1675 H         1 <0>         0.1081
@<TRIPOS>BOND
     1    1    2 1
     2    1   29 1
     3    1   30 1
     4    1   31 1
     5    2    7 ar
     6    2    3 ar
     7    3    4 ar
     8    3   32 1
     9    4    5 ar
    10    4   33 1
    11    5    6 ar
    12    5    9 1
    13    6    7 ar
    14    6    8 1
    15    7   34 1
    16    8   35 1
    17    8   36 1
    18    8   37 1
    19    9   10 am
    20    9   38 1
    21   10   11 2
    22   10   12 1
    23   12   18 1
    24   12   13 2
    25   13   14 1
    26   13   28 1
    27   14   15 1
    28   14   39 1
    29   15   16 2
    30   15   17 1
    31   17   18 1
    32   17   40 1
    33   18   19 1
    34   18   20 1
    35   20   25 ar
    36   20   21 ar
    37   21   22 ar
    38   21   41 1
    39   22   23 ar
    40   22   42 1
    41   23   24 ar
    42   23   26 1
    43   24   25 ar
    44   24   43 1
    45   25   44 1
    46   26   27 3
    47   28   45 1
    48   28   46 1
    49   28   47 1
@<TRIPOS>MOLECULE
ZINC20682328
   53    57     0     0     0
SMALL
USER_CHARGES
4-[(3aR,4S,9bR)-6-[[(2R)-tetrahydrofuran-2-yl]methoxy]-3a,4,5,9b-tetrahydro-3H-cyclopenta[c]quinolin-4-yl]benzene-1,3-diol
@<TRIPOS>ATOM
      1 C1          1.8356    2.2550   -5.9333 C.ar      1 <0>        -0.1383
      2 C2          1.1383    2.6469   -7.0601 C.ar      1 <0>        -0.1047
      3 C3         -0.2228    2.8676   -7.0022 C.ar      1 <0>        -0.1203
      4 C4         -0.9161    2.7095   -5.8012 C.ar      1 <0>         0.2038
      5 C5         -0.1979    2.3118   -4.6670 C.ar      1 <0>         0.0518
      6 C6          1.1639    2.0909   -4.7357 C.ar      1 <0>        -0.1713
      7 O1         -0.8473    2.1466   -3.4834 O.3       1 <0>        -0.3132
      8 C7         -0.0597    1.7396   -2.3626 C.3       1 <0>         0.0619
      9 C8         -0.9566    1.6070   -1.1302 C.3       1 <0>         0.0781
     10 H1         -1.8329    1.0013   -1.4044 H         1 <0>         0.0831
     11 C9         -0.1473    1.0461    0.0661 C.3       1 <0>        -0.1486
     12 C10        -0.9744    1.5889    1.2633 C.3       1 <0>        -0.1521
     13 C11        -1.4699    2.9501    0.7280 C.3       1 <0>         0.0511
     14 O2         -1.4105    2.9009   -0.7023 O.3       1 <0>        -0.3722
     15 N1         -2.2852    2.9382   -5.6520 N.pl3     1 <0>        -0.7408
     16 C12        -3.0359    3.2797   -6.8711 C.3       1 <0>         0.2058
     17 H2         -3.9809    3.7710   -6.5962 H         1 <0>         0.0941
     18 C13        -2.1514    4.1895   -7.6983 C.3       1 <0>        -0.0851
     19 H3         -2.0024    5.0598   -7.0423 H         1 <0>         0.0999
     20 C14        -0.9969    3.2662   -8.1985 C.3       1 <0>        -0.0160
     21 H4         -1.1602    2.2731   -8.6425 H         1 <0>         0.1021
     22 C15        -0.4021    4.0453   -9.3121 C.2       1 <0>        -0.1638
     23 C16        -1.3470    4.8156   -9.8403 C.2       1 <0>        -0.1748
     24 C17        -2.6600    4.6286   -9.0760 C.3       1 <0>        -0.0812
     25 C18        -3.3547    2.0270   -7.6459 C.ar      1 <0>        -0.1795
     26 C19        -2.5530    0.9094   -7.5117 C.ar      1 <0>        -0.0234
     27 C20        -2.8429   -0.2406   -8.2203 C.ar      1 <0>        -0.2066
     28 C21        -3.9405   -0.2760   -9.0691 C.ar      1 <0>         0.1948
     29 C22        -4.7461    0.8437   -9.2054 C.ar      1 <0>        -0.3137
     30 C23        -4.4562    1.9949   -8.4891 C.ar      1 <0>         0.2031
     31 O3         -5.2474    3.0925   -8.6164 O.3       1 <0>        -0.5028
     32 O4         -4.2249   -1.4074   -9.7662 O.3       1 <0>        -0.5082
     33 H5          2.9003    2.0820   -5.9867 H         1 <0>         0.1199
     34 H6          1.6631    2.7813   -7.9944 H         1 <0>         0.1198
     35 H7          1.7049    1.7849   -3.8526 H         1 <0>         0.1215
     36 H8          0.4121    0.7697   -2.5788 H         1 <0>         0.0727
     37 H9          0.7197    2.4915   -2.1697 H         1 <0>         0.0669
     38 H10        -0.1241   -0.0522    0.0103 H         1 <0>         0.0880
     39 H11         0.8803    1.4369    0.0291 H         1 <0>         0.0828
     40 H12        -1.7950    0.8917    1.4881 H         1 <0>         0.0801
     41 H13        -0.3236    1.6856    2.1448 H         1 <0>         0.0859
     42 H14        -2.5035    3.1216    1.0631 H         1 <0>         0.0714
     43 H15        -0.8224    3.7525    1.1112 H         1 <0>         0.0716
     44 H16        -2.8060    2.8740   -4.6852 H         1 <0>         0.4386
     45 H17         0.6189    4.0690   -9.7207 H         1 <0>         0.1298
     46 H18        -1.1145    5.4584  -10.7021 H         1 <0>         0.1277
     47 H19        -3.3010    3.8407   -9.4984 H         1 <0>         0.0864
     48 H20        -3.2401    5.5576   -8.9737 H         1 <0>         0.0683
     49 H21        -1.6986    0.9349   -6.8515 H         1 <0>         0.1366
     50 H22        -2.2147   -1.1126   -8.1141 H         1 <0>         0.1257
     51 H23        -5.6009    0.8180   -9.8650 H         1 <0>         0.1287
     52 H24        -6.1205    3.0666   -9.2850 H         1 <0>         0.4321
     53 H25        -5.0949   -1.4350  -10.4388 H         1 <0>         0.4322
@<TRIPOS>BOND
     1    1    6 ar
     2    1    2 ar
     3    1   33 1
     4    2    3 ar
     5    2   34 1
     6    3   20 1
     7    3    4 ar
     8    4    5 ar
     9    4   15 1
    10    5    6 ar
    11    5    7 1
    12    6   35 1
    13    7    8 1
    14    8    9 1
    15    8   36 1
    16    8   37 1
    17    9   10 1
    18    9   14 1
    19    9   11 1
    20   11   12 1
    21   11   38 1
    22   11   39 1
    23   12   13 1
    24   12   40 1
    25   12   41 1
    26   13   14 1
    27   13   42 1
    28   13   43 1
    29   15   16 1
    30   15   44 1
    31   16   17 1
    32   16   18 1
    33   16   25 1
    34   18   19 1
    35   18   24 1
    36   18   20 1
    37   20   21 1
    38   20   22 1
    39   22   23 2
    40   22   45 1
    41   23   24 1
    42   23   46 1
    43   24   47 1
    44   24   48 1
    45   25   30 ar
    46   25   26 ar
    47   26   27 ar
    48   26   49 1
    49   27   28 ar
    50   27   50 1
    51   28   29 ar
    52   28   32 1
    53   29   30 ar
    54   29   51 1
    55   30   31 1
    56   31   52 1
    57   32   53 1
@<TRIPOS>MOLECULE
ZINC45304722
   48    51     0     0     0
SMALL
USER_CHARGES

@<TRIPOS>ATOM
      1 C1         -0.0164    1.3567    0.0095 C.ar      1 <0>        -0.1148
      2 C2          1.1686    2.0905    0.0021 C.ar      1 <0>        -0.1166
      3 C3          2.3785    1.4675   -0.0131 C.ar      1 <0>        -0.1053
      4 C4          2.4375    0.0634   -0.0211 C.ar      1 <0>        -0.0505
      5 C5          3.6681   -0.6153   -0.0364 C.ar      1 <0>        -0.0863
      6 C6          3.6865   -1.9761   -0.0434 C.ar      1 <0>        -0.0698
      7 C7          2.5015   -2.7098   -0.0357 C.ar      1 <0>        -0.1007
      8 C8          1.2917   -2.0868   -0.0209 C.ar      1 <0>        -0.1032
      9 C9          1.2327   -0.6827   -0.0133 C.ar      1 <0>        -0.0486
     10 C10         0.0021   -0.0041    0.0020 C.ar      1 <0>        -0.1074
     11 C11         5.0079   -2.7004   -0.0602 C.3       1 <0>        -0.0913
     12 C12         5.4625   -2.9490    1.3549 C.2       1 <0>         0.5153
     13 O1          4.7807   -2.5748    2.2855 O.2       1 <0>        -0.5159
     14 N1          6.6269   -3.5871    1.5864 N.am      1 <0>        -0.5336
     15 N2          7.0495   -3.8182    2.9019 N.am      1 <0>        -0.5324
     16 C13         8.2139   -4.4563    3.1334 C.2       1 <0>         0.7127
     17 O2          8.5807   -4.6569    4.2751 O.2       1 <0>        -0.5651
     18 N3          8.9716   -4.8721    2.0993 N.am      1 <0>        -0.7346
     19 C14        10.2372   -5.5658    2.3509 C.3       1 <0>         0.2017
     20 H1         10.1594   -6.1798    3.2481 H         1 <0>         0.1085
     21 C15        10.6205   -6.4380    1.1366 C.3       1 <0>        -0.1241
     22 C16        12.1601   -6.3304    1.1240 C.3       1 <0>        -0.0809
     23 C17        12.4701   -5.0055    1.7871 C.ar      1 <0>        -0.0929
     24 C18        11.3645   -4.5659    2.4948 C.ar      1 <0>        -0.1154
     25 C19        11.4189   -3.3686    3.1878 C.ar      1 <0>        -0.0852
     26 C20        12.5739   -2.6106    3.1764 C.ar      1 <0>        -0.1232
     27 C21        13.6793   -3.0484    2.4718 C.ar      1 <0>        -0.1123
     28 C22        13.6269   -4.2448    1.7747 C.ar      1 <0>        -0.1104
     29 H2         -0.9633    1.8757    0.0259 H         1 <0>         0.1237
     30 H3          1.1260    3.1696    0.0083 H         1 <0>         0.1237
     31 H4          3.2884    2.0491   -0.0194 H         1 <0>         0.1267
     32 H5          4.5943   -0.0599   -0.0428 H         1 <0>         0.1258
     33 H6          2.5441   -3.7890   -0.0419 H         1 <0>         0.1223
     34 H7          0.3816   -2.6684   -0.0154 H         1 <0>         0.1287
     35 H8         -0.9241   -0.5595    0.0082 H         1 <0>         0.1275
     36 H9          4.8935   -3.6529   -0.5777 H         1 <0>         0.1119
     37 H10         5.7491   -2.0921   -0.5784 H         1 <0>         0.1111
     38 H11         7.1722   -3.8864    0.8421 H         1 <0>         0.4187
     39 H12         6.5042   -3.5189    3.6462 H         1 <0>         0.4439
     40 H13         8.6790   -4.7122    1.1884 H         1 <0>         0.3917
     41 H14        10.3055   -7.4707    1.2865 H         1 <0>         0.0890
     42 H15        10.1962   -6.0318    0.2184 H         1 <0>         0.0799
     43 H16        12.6012   -7.1498    1.6917 H         1 <0>         0.0869
     44 H17        12.5313   -6.3364    0.0992 H         1 <0>         0.0815
     45 H18        10.5556   -3.0258    3.7387 H         1 <0>         0.1186
     46 H19        12.6128   -1.6766    3.7174 H         1 <0>         0.1238
     47 H20        14.5830   -2.4570    2.4618 H         1 <0>         0.1248
     48 H21        14.4905   -4.5874    1.2241 H         1 <0>         0.1219
@<TRIPOS>BOND
     1    1   10 ar
     2    1    2 ar
     3    1   29 1
     4    2    3 ar
     5    2   30 1
     6    3    4 ar
     7    3   31 1
     8    4    9 ar
     9    4    5 ar
    10    5    6 ar
    11    5   32 1
    12    6    7 ar
    13    6   11 1
    14    7    8 ar
    15    7   33 1
    16    8    9 ar
    17    8   34 1
    18    9   10 ar
    19   10   35 1
    20   11   12 1
    21   11   36 1
    22   11   37 1
    23   12   13 2
    24   12   14 am
    25   14   15 1
    26   14   38 1
    27   15   16 am
    28   15   39 1
    29   16   17 2
    30   16   18 am
    31   18   19 1
    32   18   40 1
    33   19   20 1
    34   19   24 1
    35   19   21 1
    36   21   22 1
    37   21   41 1
    38   21   42 1
    39   22   23 1
    40   22   43 1
    41   22   44 1
    42   23   28 ar
    43   23   24 ar
    44   24   25 ar
    45   25   26 ar
    46   25   45 1
    47   26   27 ar
    48   26   46 1
    49   27   28 ar
    50   27   47 1
    51   28   48 1
@<TRIPOS>MOLECULE
ZINC09732840
   48    50     0     0     0
SMALL
USER_CHARGES

@<TRIPOS>ATOM
      1 C1         -0.0187    1.5258    0.0104 C.3       1 <0>        -0.1604
      2 C2          0.0021   -0.0041    0.0020 C.3       1 <0>         0.2022
      3 H1          0.5293   -0.3651    0.8851 H         1 <0>         0.1012
      4 C3         -1.4117   -0.5257    0.0127 C.ar      1 <0>        -0.0956
      5 C4         -2.1437   -0.5699   -1.1594 C.ar      1 <0>        -0.1194
      6 C5         -3.4381   -1.0459   -1.1410 C.ar      1 <0>        -0.1142
      7 C6         -4.0127   -1.4830    0.0458 C.ar      1 <0>        -0.0721
      8 C7         -3.2823   -1.4437    1.2119 C.ar      1 <0>        -0.0680
      9 C8         -1.9780   -0.9659    1.1909 C.ar      1 <0>        -0.1046
     10 C9         -3.8351   -1.9159    2.5312 C.3       1 <0>        -0.0839
     11 C10        -5.3591   -1.9994    2.4761 C.3       1 <0>        -0.1210
     12 C11        -5.7550   -2.8113    1.2372 C.3       1 <0>        -0.1215
     13 C12        -5.4328   -1.9829   -0.0049 C.3       1 <0>        -0.0831
     14 N1          0.6878   -0.4765   -1.2033 N.am      1 <0>        -0.7376
     15 C13         2.0310   -0.5870   -1.2149 C.2       1 <0>         0.7158
     16 O1          2.6736   -0.2945   -0.2251 O.2       1 <0>        -0.5632
     17 N2          2.6618   -1.0216   -2.3238 N.am      1 <0>        -0.5289
     18 N3          1.9213   -1.3586   -3.4644 N.am      1 <0>        -0.5270
     19 C14         2.5522   -1.7933   -4.5733 C.2       1 <0>         0.5661
     20 O2          3.7637   -1.8929   -4.5837 O.2       1 <0>        -0.5212
     21 C15         1.7714   -2.1486   -5.7759 C.ar      1 <0>        -0.1432
     22 C16         0.3800   -2.0296   -5.7685 C.ar      1 <0>        -0.0574
     23 C17        -0.3436   -2.3621   -6.8935 C.ar      1 <0>        -0.1580
     24 C18         0.3075   -2.8144   -8.0311 C.ar      1 <0>         0.1334
     25 C19         1.6887   -2.9349   -8.0437 C.ar      1 <0>        -0.1578
     26 C20         2.4225   -2.5992   -6.9262 C.ar      1 <0>        -0.0221
     27 F1         -0.4066   -3.1394   -9.1309 F         1 <0>        -0.1294
     28 H2          1.0039    1.9031    0.0027 H         1 <0>         0.0679
     29 H3         -0.5459    1.8868   -0.8726 H         1 <0>         0.0591
     30 H4         -0.5289    1.8773    0.9072 H         1 <0>         0.0713
     31 H5         -1.7035   -0.2326   -2.0862 H         1 <0>         0.1162
     32 H6         -4.0098   -1.0787   -2.0567 H         1 <0>         0.1233
     33 H7         -1.4044   -0.9344    2.1054 H         1 <0>         0.1250
     34 H8         -3.4291   -2.9016    2.7588 H         1 <0>         0.0777
     35 H9         -3.5415   -1.2173    3.3146 H         1 <0>         0.0764
     36 H10        -5.7323   -2.4934    3.3732 H         1 <0>         0.0694
     37 H11        -5.7794   -0.9961    2.4072 H         1 <0>         0.0662
     38 H12        -5.1904   -3.7434    1.2133 H         1 <0>         0.0658
     39 H13        -6.8226   -3.0288    1.2666 H         1 <0>         0.0691
     40 H14        -6.1119   -1.1318   -0.0554 H         1 <0>         0.0772
     41 H15        -5.5649   -2.6006   -0.8931 H         1 <0>         0.0749
     42 H16         0.1751   -0.7099   -1.9930 H         1 <0>         0.3887
     43 H17         3.6285   -1.1011   -2.3322 H         1 <0>         0.4457
     44 H18         0.9546   -1.2791   -3.4560 H         1 <0>         0.4174
     45 H19        -0.1282   -1.6780   -4.8827 H         1 <0>         0.1330
     46 H20        -1.4197   -2.2704   -6.8889 H         1 <0>         0.1468
     47 H21         2.1908   -3.2884   -8.9321 H         1 <0>         0.1484
     48 H22         3.4987   -2.6892   -6.9386 H         1 <0>         0.1514
@<TRIPOS>BOND
     1    1    2 1
     2    1   28 1
     3    1   29 1
     4    1   30 1
     5    2    3 1
     6    2    4 1
     7    2   14 1
     8    4    9 ar
     9    4    5 ar
    10    5    6 ar
    11    5   31 1
    12    6    7 ar
    13    6   32 1
    14    7   13 1
    15    7    8 ar
    16    8    9 ar
    17    8   10 1
    18    9   33 1
    19   10   11 1
    20   10   34 1
    21   10   35 1
    22   11   12 1
    23   11   36 1
    24   11   37 1
    25   12   13 1
    26   12   38 1
    27   12   39 1
    28   13   40 1
    29   13   41 1
    30   14   15 am
    31   14   42 1
    32   15   16 2
    33   15   17 am
    34   17   18 1
    35   17   43 1
    36   18   19 am
    37   18   44 1
    38   19   20 2
    39   19   21 1
    40   21   26 ar
    41   21   22 ar
    42   22   23 ar
    43   22   45 1
    44   23   24 ar
    45   23   46 1
    46   24   25 ar
    47   24   27 1
    48   25   26 ar
    49   25   47 1
    50   26   48 1
@<TRIPOS>MOLECULE
ZINC13132348
   48    51     0     0     0
SMALL
USER_CHARGES

@<TRIPOS>ATOM
      1 C1         -0.0187    1.5258    0.0104 C.3       1 <0>        -0.1473
      2 C2          0.0021   -0.0041    0.0020 C.3       1 <0>        -0.0883
      3 C3          0.7309   -0.5033    1.2229 C.ar      1 <0>        -0.0729
      4 C4          2.0970   -0.7095    1.1762 C.ar      1 <0>        -0.1175
      5 C5          2.7656   -1.1675    2.2961 C.ar      1 <0>        -0.1007
      6 C6          2.0682   -1.4187    3.4629 C.ar      1 <0>        -0.1189
      7 C7          0.7022   -1.2116    3.5099 C.ar      1 <0>        -0.1053
      8 C8          0.0343   -0.7496    2.3912 C.ar      1 <0>        -0.1152
      9 C9          2.7969   -1.9189    4.6834 C.3       1 <0>         0.1968
     10 H1          3.8592   -1.6915    4.5942 H         1 <0>         0.1168
     11 C10         2.6041   -3.4341    4.8130 C.3       1 <0>        -0.1401
     12 C11         1.1073   -3.7617    4.8794 C.3       1 <0>         0.2135
     13 H2          0.6517   -3.5878    3.9045 H         1 <0>         0.0973
     14 N1          0.4783   -2.8952    5.8759 N.pl3     1 <0>        -0.4030
     15 C12         1.0209   -1.7428    6.3365 C.2       1 <0>         0.5471
     16 N2          0.2003   -1.2282    7.2131 N.2       1 <0>        -0.5999
     17 C13        -0.8749   -2.0201    7.3374 C.2       1 <0>         0.4860
     18 N3         -0.7423   -3.0519    6.5339 N.2       1 <0>        -0.3609
     19 N4         -1.9599   -1.7863    8.1836 N.pl3     1 <0>        -0.8258
     20 N5          2.2502   -1.2663    5.8889 N.pl3     1 <0>        -0.7039
     21 C14         0.9231   -5.2048    5.2727 C.ar      1 <0>        -0.0959
     22 C15         1.4120   -5.6590    6.4833 C.ar      1 <0>        -0.0848
     23 C16         1.2431   -6.9828    6.8440 C.ar      1 <0>        -0.1211
     24 C17         0.5849   -7.8521    5.9943 C.ar      1 <0>        -0.0760
     25 C18         0.0952   -7.3976    4.7842 C.ar      1 <0>        -0.1206
     26 C19         0.2604   -6.0729    4.4253 C.ar      1 <0>        -0.0920
     27 C20         0.4016   -9.2954    6.3872 C.3       1 <0>        -0.1175
     28 H3          1.0039    1.9031    0.0027 H         1 <0>         0.0561
     29 H4         -0.5459    1.8868   -0.8726 H         1 <0>         0.0595
     30 H5         -0.5289    1.8773    0.9072 H         1 <0>         0.0553
     31 H6         -1.0205   -0.3814    0.0098 H         1 <0>         0.0720
     32 H7          0.5123   -0.3556   -0.8948 H         1 <0>         0.0733
     33 H8          2.6419   -0.5132    0.2646 H         1 <0>         0.1241
     34 H9          3.8328   -1.3293    2.2593 H         1 <0>         0.1259
     35 H10         0.1573   -1.4082    4.4213 H         1 <0>         0.1232
     36 H11        -1.0323   -0.5842    2.4291 H         1 <0>         0.1193
     37 H12         3.0461   -3.9310    3.9494 H         1 <0>         0.1096
     38 H13         3.0928   -3.7854    5.7218 H         1 <0>         0.0903
     39 H14        -1.9756   -0.9954    8.7449 H         1 <0>         0.4126
     40 H15        -2.6983   -2.4148    8.2104 H         1 <0>         0.4128
     41 H16         2.7216   -0.5497    6.3419 H         1 <0>         0.4275
     42 H17         1.9262   -4.9798    7.1471 H         1 <0>         0.1139
     43 H18         1.6256   -7.3378    7.7895 H         1 <0>         0.1218
     44 H19        -0.4187   -8.0769    4.1202 H         1 <0>         0.1242
     45 H20        -0.1255   -5.7170    3.4815 H         1 <0>         0.1223
     46 H21        -0.5357   -9.4074    6.9323 H         1 <0>         0.0720
     47 H22         0.3771   -9.9156    5.4911 H         1 <0>         0.0676
     48 H23         1.2308   -9.6072    7.0223 H         1 <0>         0.0669
@<TRIPOS>BOND
     1    1    2 1
     2    1   28 1
     3    1   29 1
     4    1   30 1
     5    2    3 1
     6    2   31 1
     7    2   32 1
     8    3    8 ar
     9    3    4 ar
    10    4    5 ar
    11    4   33 1
    12    5    6 ar
    13    5   34 1
    14    6    7 ar
    15    6    9 1
    16    7    8 ar
    17    7   35 1
    18    8   36 1
    19    9   10 1
    20    9   20 1
    21    9   11 1
    22   11   12 1
    23   11   37 1
    24   11   38 1
    25   12   13 1
    26   12   14 1
    27   12   21 1
    28   14   18 1
    29   14   15 1
    30   15   16 2
    31   15   20 1
    32   16   17 1
    33   17   18 2
    34   17   19 1
    35   19   39 1
    36   19   40 1
    37   20   41 1
    38   21   26 ar
    39   21   22 ar
    40   22   23 ar
    41   22   42 1
    42   23   24 ar
    43   23   43 1
    44   24   25 ar
    45   24   27 1
    46   25   26 ar
    47   25   44 1
    48   26   45 1
    49   27   46 1
    50   27   47 1
    51   27   48 1
@<TRIPOS>MOLECULE
ZINC09170537
   49    51     0     0     0
SMALL
USER_CHARGES
N-(5-chloro-2-fluoro-phenyl)-3-(3-phenoxyphenyl)-3-ureido-propanamide
@<TRIPOS>ATOM
      1 C1          2.5288   -0.2078    9.1171 C.ar      1 <0>        -0.1189
      2 C2          3.1612    0.5822    8.1748 C.ar      1 <0>        -0.1048
      3 C3          2.4376    1.1310    7.1340 C.ar      1 <0>        -0.1332
      4 C4          1.0749    0.8891    7.0346 C.ar      1 <0>         0.0848
      5 C5          0.4417    0.1007    7.9848 C.ar      1 <0>        -0.1230
      6 C6          1.1709   -0.4501    9.0207 C.ar      1 <0>        -0.1049
      7 O1          0.3608    1.4278    6.0118 O.3       1 <0>        -0.2605
      8 C7          0.4954    0.8736    4.7784 C.ar      1 <0>         0.1248
      9 C8          1.2586   -0.2735    4.6113 C.ar      1 <0>        -0.1921
     10 C9          1.3935   -0.8350    3.3567 C.ar      1 <0>        -0.0773
     11 C10         0.7646   -0.2582    2.2684 C.ar      1 <0>        -0.1390
     12 C11         0.0081    0.8875    2.4312 C.ar      1 <0>        -0.0469
     13 C12        -0.1301    1.4532    3.6841 C.ar      1 <0>        -0.1272
     14 C13        -0.6714    1.5162    1.2421 C.3       1 <0>         0.2306
     15 H1         -1.7216    1.2247    1.2277 H         1 <0>         0.1140
     16 C14         0.0076    1.0406   -0.0438 C.3       1 <0>        -0.1645
     17 C15        -0.7468    1.5706   -1.2359 C.2       1 <0>         0.5231
     18 O2         -1.7307    2.2608   -1.0730 O.2       1 <0>        -0.5124
     19 N1         -0.3281    1.2777   -2.4830 N.am      1 <0>        -0.6688
     20 C16        -1.0922    1.6710   -3.5887 C.ar      1 <0>         0.1344
     21 C17        -2.4574    1.8804   -3.4515 C.ar      1 <0>        -0.1003
     22 C18        -3.2084    2.2734   -4.5437 C.ar      1 <0>        -0.0241
     23 C19        -2.6024    2.4485   -5.7755 C.ar      1 <0>        -0.1019
     24 C20        -1.2437    2.2357   -5.9173 C.ar      1 <0>        -0.1172
     25 C21        -0.4859    1.8472   -4.8275 C.ar      1 <0>         0.0695
     26 F1          0.8418    1.6394   -4.9664 F         1 <0>        -0.1319
     27 Cl1        -4.9149    2.5413   -4.3713 Cl        1 <0>        -0.0530
     28 N2         -0.5708    2.9747    1.3369 N.am      1 <0>        -0.7335
     29 C22         0.6359    3.5595    1.4722 C.2       1 <0>         0.7061
     30 O3          1.6469    2.8857    1.4245 O.2       1 <0>        -0.5847
     31 N3          0.7220    4.8913    1.6604 N.am      1 <0>        -0.8677
     32 H2          3.0964   -0.6360    9.9301 H         1 <0>         0.1291
     33 H3          4.2218    0.7705    8.2528 H         1 <0>         0.1306
     34 H4          2.9320    1.7483    6.3984 H         1 <0>         0.1296
     35 H5         -0.6198   -0.0853    7.9124 H         1 <0>         0.1319
     36 H6          0.6792   -1.0669    9.7584 H         1 <0>         0.1319
     37 H7          1.7462   -0.7268    5.4616 H         1 <0>         0.1266
     38 H8          1.9872   -1.7276    3.2261 H         1 <0>         0.1269
     39 H9          0.8677   -0.7014    1.2889 H         1 <0>         0.1271
     40 H10        -0.7248    2.3456    3.8115 H         1 <0>         0.1273
     41 H11         0.0112   -0.0490   -0.0712 H         1 <0>         0.1137
     42 H12         1.0335    1.4081   -0.0703 H         1 <0>         0.1270
     43 H13         0.5026    0.7944   -2.6147 H         1 <0>         0.4185
     44 H14        -2.9321    1.7398   -2.4916 H         1 <0>         0.1668
     45 H15        -3.1922    2.7515   -6.6280 H         1 <0>         0.1461
     46 H16        -0.7737    2.3728   -6.8800 H         1 <0>         0.1508
     47 H17        -1.3726    3.5194    1.3023 H         1 <0>         0.4049
     48 H18        -0.0845    5.4289    1.6984 H         1 <0>         0.3970
     49 H19         1.5905    5.3122    1.7577 H         1 <0>         0.4147
@<TRIPOS>BOND
     1    1    6 ar
     2    1    2 ar
     3    1   32 1
     4    2    3 ar
     5    2   33 1
     6    3    4 ar
     7    3   34 1
     8    4    5 ar
     9    4    7 1
    10    5    6 ar
    11    5   35 1
    12    6   36 1
    13    7    8 1
    14    8   13 ar
    15    8    9 ar
    16    9   10 ar
    17    9   37 1
    18   10   11 ar
    19   10   38 1
    20   11   12 ar
    21   11   39 1
    22   12   13 ar
    23   12   14 1
    24   13   40 1
    25   14   15 1
    26   14   16 1
    27   14   28 1
    28   16   17 1
    29   16   41 1
    30   16   42 1
    31   17   18 2
    32   17   19 am
    33   19   20 1
    34   19   43 1
    35   20   25 ar
    36   20   21 ar
    37   21   22 ar
    38   21   44 1
    39   22   23 ar
    40   22   27 1
    41   23   24 ar
    42   23   45 1
    43   24   25 ar
    44   24   46 1
    45   25   26 1
    46   28   29 am
    47   28   47 1
    48   29   30 2
    49   29   31 am
    50   31   48 1
    51   31   49 1
@<TRIPOS>MOLECULE
ZINC29719742
   53    55     0     0     0
SMALL
USER_CHARGES
(2R)-2-[4-(2-furylmethylcarbamoylamino)anilino]-N-(m-tolyl)propanamide
@<TRIPOS>ATOM
      1 C1         -2.1314    0.9635    1.3143 C.3       1 <0>        -0.1175
      2 C2         -1.0199    1.7414    0.6582 C.ar      1 <0>        -0.0681
      3 C3          0.0256    1.0718    0.0488 C.ar      1 <0>        -0.1349
      4 C4          1.0446    1.7818   -0.5588 C.ar      1 <0>        -0.0979
      5 C5          1.0237    3.1630   -0.5548 C.ar      1 <0>        -0.1285
      6 C6         -0.0218    3.8382    0.0607 C.ar      1 <0>         0.1504
      7 C7         -1.0437    3.1220    0.6706 C.ar      1 <0>        -0.1466
      8 N1         -0.0461    5.2372    0.0661 N.am      1 <0>        -0.6823
      9 C8          1.1057    5.9309    0.1587 C.2       1 <0>         0.5142
     10 O1          2.1681    5.3459    0.1527 O.2       1 <0>        -0.5157
     11 C9          1.0736    7.4335    0.2698 C.3       1 <0>         0.1400
     12 H1          0.6150    7.8642   -0.6325 H         1 <0>         0.1056
     13 C10         0.2980    7.8355    1.5259 C.3       1 <0>        -0.1659
     14 N2          2.4432    7.9461    0.3566 N.pl3     1 <0>        -0.7462
     15 C11         2.7275    9.2546   -0.0495 C.ar      1 <0>         0.2116
     16 C12         1.7124   10.0655   -0.5401 C.ar      1 <0>        -0.1885
     17 C13         1.9920   11.3587   -0.9349 C.ar      1 <0>        -0.0962
     18 C14         3.2901   11.8443   -0.8530 C.ar      1 <0>         0.1065
     19 C15         4.3061   11.0319   -0.3679 C.ar      1 <0>        -0.0690
     20 C16         4.0258    9.7407    0.0328 C.ar      1 <0>        -0.1741
     21 N3          3.5750   13.1554   -1.2599 N.am      1 <0>        -0.6945
     22 C17         4.7525   13.4363   -1.8524 C.2       1 <0>         0.7082
     23 O2          5.6011   12.5720   -1.9585 O.2       1 <0>        -0.5799
     24 N4          4.9893   14.6752   -2.3273 N.am      1 <0>        -0.7531
     25 C18         6.2692   14.9806   -2.9713 C.3       1 <0>         0.2243
     26 C19         6.2796   16.4224   -3.4096 C.2       1 <0>        -0.0389
     27 C20         6.7017   17.4655   -2.6726 C.2       1 <0>        -0.1810
     28 C21         6.5357   18.6227   -3.4679 C.2       1 <0>        -0.2186
     29 C22         6.0220   18.2174   -4.6432 C.2       1 <0>        -0.0269
     30 O3          5.8745   16.8831   -4.6043 O.3       1 <0>        -0.1716
     31 H2         -1.9402   -0.1140    1.2029 H         1 <0>         0.0675
     32 H3         -3.0887    1.2174    0.8357 H         1 <0>         0.0709
     33 H4         -2.1766    1.2193    2.3832 H         1 <0>         0.0705
     34 H5          0.0438   -0.0081    0.0437 H         1 <0>         0.1230
     35 H6          1.8575    1.2560   -1.0374 H         1 <0>         0.1255
     36 H7          1.8196    3.7170   -1.0303 H         1 <0>         0.1367
     37 H8         -1.8582    3.6444    1.1503 H         1 <0>         0.1248
     38 H9         -1.0053    5.7709   -0.0052 H         1 <0>         0.4352
     39 H10         0.2746    8.9323    1.6070 H         1 <0>         0.0763
     40 H11         0.7922    7.4127    2.4130 H         1 <0>         0.0669
     41 H12        -0.7304    7.4506    1.4607 H         1 <0>         0.0683
     42 H13         3.2481    7.3023    0.7410 H         1 <0>         0.4300
     43 H14         0.7035    9.6862   -0.6083 H         1 <0>         0.1215
     44 H15         1.2017   11.9911   -1.3116 H         1 <0>         0.1221
     45 H16         5.3157   11.4100   -0.3037 H         1 <0>         0.1387
     46 H17         4.8161    9.1088    0.4105 H         1 <0>         0.1229
     47 H18         2.8375   13.9548   -1.0956 H         1 <0>         0.4247
     48 H19         4.2215   15.4570   -2.2313 H         1 <0>         0.4195
     49 H20         7.0888   14.8082   -2.2582 H         1 <0>         0.0985
     50 H21         6.4031   14.3299   -3.8480 H         1 <0>         0.0838
     51 H22         7.0920   17.4267   -1.6664 H         1 <0>         0.1510
     52 H23         6.7749   19.6373   -3.1857 H         1 <0>         0.1513
     53 H24         5.7751   18.8561   -5.4783 H         1 <0>         0.2055
@<TRIPOS>BOND
     1    1    2 1
     2    1   31 1
     3    1   32 1
     4    1   33 1
     5    2    7 ar
     6    2    3 ar
     7    3    4 ar
     8    3   34 1
     9    4    5 ar
    10    4   35 1
    11    5    6 ar
    12    5   36 1
    13    6    7 ar
    14    6    8 1
    15    7   37 1
    16    8    9 am
    17    8   38 1
    18    9   10 2
    19    9   11 1
    20   11   12 1
    21   11   13 1
    22   11   14 1
    23   13   39 1
    24   13   40 1
    25   13   41 1
    26   14   15 1
    27   14   42 1
    28   15   20 ar
    29   15   16 ar
    30   16   17 ar
    31   16   43 1
    32   17   18 ar
    33   17   44 1
    34   18   19 ar
    35   18   21 1
    36   19   20 ar
    37   19   45 1
    38   20   46 1
    39   21   22 am
    40   21   47 1
    41   22   23 2
    42   22   24 am
    43   24   25 1
    44   24   48 1
    45   25   26 1
    46   25   49 1
    47   25   50 1
    48   26   30 1
    49   26   27 2
    50   27   28 1
    51   27   51 1
    52   28   29 2
    53   28   52 1
    54   29   30 1
    55   29   53 1
@<TRIPOS>MOLECULE
ZINC39856096
   54    56     0     0     0
SMALL
USER_CHARGES

@<TRIPOS>ATOM
      1 C1          1.2068    1.2349   -0.1720 C.3       1 <0>        -0.1170
      2 C2          0.5776   -0.1317   -0.0847 C.ar      1 <0>        -0.0661
      3 C3         -0.0270   -0.6862   -1.1982 C.ar      1 <0>        -0.1318
      4 C4         -0.6058   -1.9396   -1.1222 C.ar      1 <0>        -0.0993
      5 C5         -0.5816   -2.6422    0.0667 C.ar      1 <0>        -0.1319
      6 C6          0.0250   -2.0885    1.1865 C.ar      1 <0>         0.1472
      7 C7          0.6102   -0.8312    1.1054 C.ar      1 <0>        -0.1146
      8 C8          1.2746   -0.2288    2.3165 C.3       1 <0>        -0.1184
      9 N1          0.0513   -2.7971    2.3916 N.am      1 <0>        -0.6590
     10 C9         -0.0327   -4.1423    2.3844 C.2       1 <0>         0.6080
     11 O1         -0.0300   -4.7464    1.3280 O.2       1 <0>        -0.4911
     12 C10        -0.1272   -4.8781    3.6499 C.2       1 <0>        -0.1022
     13 C11        -0.2117   -6.2366    3.7793 C.2       1 <0>        -0.0242
     14 C12        -0.2825   -6.4952    5.1536 C.2       1 <0>        -0.1671
     15 C13        -0.2399   -5.2848    5.8041 C.2       1 <0>         0.0848
     16 O2         -0.1396   -4.3271    4.8850 O.3       1 <0>        -0.1435
     17 C14        -0.2993   -5.1577    7.3052 C.3       1 <0>        -0.0405
     18 C15        -0.9111   -6.4291    7.8995 C.3       1 <0>        -0.0493
     19 C16        -0.1713   -7.6722    7.3942 C.3       1 <0>        -0.1163
     20 C17        -0.3837   -7.7746    5.8908 C.2       1 <0>         0.2170
     21 N2         -0.6348   -8.9011    5.2986 N.2       1 <0>        -0.2814
     22 N3         -0.7195  -10.0824    6.0470 N.pl3     1 <0>        -0.5375
     23 C18        -0.9804  -11.2528    5.4317 C.2       1 <0>         0.6047
     24 S1         -1.0838  -12.6963    6.3463 S.2       1 <0>        -0.6199
     25 N4         -1.1599  -11.2868    4.0964 N.pl3     1 <0>        -0.7839
     26 C19        -0.8139   -6.3699    9.4252 C.3       1 <0>        -0.1449
     27 C20        -2.3832   -6.5182    7.4921 C.3       1 <0>        -0.1554
     28 C21        -0.2264   -7.2521    2.6660 C.3       1 <0>        -0.0996
     29 H1          2.2508    1.1359   -0.4694 H         1 <0>         0.0723
     30 H2          0.6739    1.8338   -0.9106 H         1 <0>         0.0689
     31 H3          1.1509    1.7235    0.8007 H         1 <0>         0.0691
     32 H4         -0.0473   -0.1389   -2.1290 H         1 <0>         0.1240
     33 H5         -1.0778   -2.3695   -1.9934 H         1 <0>         0.1270
     34 H6         -1.0343   -3.6210    0.1255 H         1 <0>         0.1449
     35 H7          0.5425    0.3449    2.8848 H         1 <0>         0.0723
     36 H8          1.6783   -1.0243    2.9428 H         1 <0>         0.0616
     37 H9          2.0835    0.4287    1.9978 H         1 <0>         0.0763
     38 H10         0.1299   -2.3206    3.2329 H         1 <0>         0.4150
     39 H11         0.7080   -5.0209    7.6985 H         1 <0>         0.1081
     40 H12        -0.9143   -4.2986    7.5733 H         1 <0>         0.1044
     41 H13         0.8932   -7.5793    7.6096 H         1 <0>         0.1064
     42 H14        -0.5696   -8.5612    7.8831 H         1 <0>         0.0863
     43 H15        -0.5903  -10.0580    7.0081 H         1 <0>         0.4171
     44 H16        -1.1013  -10.4689    3.5782 H         1 <0>         0.4079
     45 H17        -1.3476  -12.1291    3.6536 H         1 <0>         0.4326
     46 H18        -1.3567   -5.4981    9.7903 H         1 <0>         0.0683
     47 H19        -1.2486   -7.2737    9.8523 H         1 <0>         0.0677
     48 H20         0.2329   -6.2960    9.7200 H         1 <0>         0.0651
     49 H21        -2.4581   -6.5502    6.4051 H         1 <0>         0.0594
     50 H22        -2.8227   -7.4224    7.9133 H         1 <0>         0.0631
     51 H23        -2.9176   -5.6456    7.8676 H         1 <0>         0.0680
     52 H24         0.7952   -7.5571    2.4389 H         1 <0>         0.0801
     53 H25        -0.8051   -8.1223    2.9755 H         1 <0>         0.0769
     54 H26        -0.6797   -6.8113    1.7781 H         1 <0>         0.0907
@<TRIPOS>BOND
     1    1    2 1
     2    1   29 1
     3    1   30 1
     4    1   31 1
     5    2    7 ar
     6    2    3 ar
     7    3    4 ar
     8    3   32 1
     9    4    5 ar
    10    4   33 1
    11    5    6 ar
    12    5   34 1
    13    6    7 ar
    14    6    9 1
    15    7    8 1
    16    8   35 1
    17    8   36 1
    18    8   37 1
    19    9   10 am
    20    9   38 1
    21   10   11 2
    22   10   12 1
    23   12   16 1
    24   12   13 2
    25   13   14 1
    26   13   28 1
    27   14   20 1
    28   14   15 2
    29   15   16 1
    30   15   17 1
    31   17   18 1
    32   17   39 1
    33   17   40 1
    34   18   19 1
    35   18   26 1
    36   18   27 1
    37   19   20 1
    38   19   41 1
    39   19   42 1
    40   20   21 2
    41   21   22 1
    42   22   23 1
    43   22   43 1
    44   23   24 2
    45   23   25 1
    46   25   44 1
    47   25   45 1
    48   26   46 1
    49   26   47 1
    50   26   48 1
    51   27   49 1
    52   27   50 1
    53   27   51 1
    54   28   52 1
    55   28   53 1
    56   28   54 1
@<TRIPOS>MOLECULE
ZINC46864399
   65    68     0     0     0
SMALL
USER_CHARGES

@<TRIPOS>ATOM
      1 C1         -0.6712    2.5706   -0.8171 C.3       1 <0>        -0.1471
      2 C2         -1.9214    2.8639    0.0147 C.3       1 <0>        -0.1133
      3 C3         -2.3787    4.3013   -0.2413 C.3       1 <0>        -0.1351
      4 C4         -3.0203    1.9098   -0.3766 C.2       1 <0>         0.5163
      5 O1         -4.0664    2.3375   -0.8169 O.2       1 <0>        -0.5172
      6 N1         -2.8407    0.5814   -0.2372 N.am      1 <0>        -0.6735
      7 C5         -3.8936   -0.2992   -0.5088 C.ar      1 <0>         0.1584
      8 C6         -4.0461   -1.4551    0.2470 C.ar      1 <0>        -0.1565
      9 C7         -5.0856   -2.3247   -0.0202 C.ar      1 <0>        -0.0828
     10 C8         -5.9765   -2.0486   -1.0397 C.ar      1 <0>        -0.1327
     11 C9         -5.8296   -0.8948   -1.7990 C.ar      1 <0>         0.1584
     12 C10        -4.7898   -0.0163   -1.5293 C.ar      1 <0>        -0.1458
     13 N2         -6.7323   -0.6159   -2.8311 N.am      1 <0>        -0.6718
     14 C11        -8.0304   -0.9540   -2.7008 C.2       1 <0>         0.5196
     15 O2         -8.4006   -1.5743   -1.7265 O.2       1 <0>        -0.5105
     16 C12        -9.0219   -0.5615   -3.7656 C.3       1 <0>        -0.1525
     17 C13       -10.4138   -1.0635   -3.3764 C.3       1 <0>         0.1543
     18 N3        -11.3776   -0.6818   -4.4116 N.am      1 <0>        -0.7510
     19 C14       -12.6758   -1.0200   -4.2812 C.2       1 <0>         0.7061
     20 O3        -13.0469   -1.6418   -3.3045 O.2       1 <0>        -0.5778
     21 N4        -13.5625   -0.6689   -5.2335 N.am      1 <0>        -0.7415
     22 C15       -14.9735   -1.0365   -5.0919 C.3       1 <0>         0.2026
     23 C16       -15.0985   -2.5594   -5.0139 C.3       1 <0>        -0.1223
     24 C17       -16.5721   -2.9432   -4.8659 C.3       1 <0>        -0.0828
     25 C18       -17.3571   -2.4283   -6.0741 C.3       1 <0>        -0.1113
     26 C19       -17.2321   -0.9054   -6.1521 C.3       1 <0>        -0.0801
     27 C20       -15.7585   -0.5216   -6.3000 C.3       1 <0>        -0.1140
     28 C21       -17.7959   -0.2813   -4.8740 C.3       1 <0>        -0.1114
     29 C22       -17.0109   -0.7962   -3.6658 C.3       1 <0>        -0.0828
     30 C23       -17.1359   -2.3191   -3.5878 C.3       1 <0>        -0.1094
     31 C24       -15.5373   -0.4124   -3.8138 C.3       1 <0>        -0.1228
     32 H1          0.1237    3.2607   -0.5341 H         1 <0>         0.0729
     33 H2         -0.3454    1.5466   -0.6347 H         1 <0>         0.0598
     34 H3         -0.9012    2.6957   -1.8752 H         1 <0>         0.0628
     35 H4         -1.6913    2.7389    1.0728 H         1 <0>         0.1019
     36 H5         -2.6087    4.4264   -1.2994 H         1 <0>         0.0631
     37 H6         -3.2693    4.5103    0.3513 H         1 <0>         0.0633
     38 H7         -1.5838    4.9914    0.0417 H         1 <0>         0.0653
     39 H8         -1.9816    0.2358    0.0514 H         1 <0>         0.4123
     40 H9         -3.3509   -1.6741    1.0440 H         1 <0>         0.1271
     41 H10        -5.2019   -3.2225    0.5687 H         1 <0>         0.1317
     42 H11        -6.7878   -2.7309   -1.2467 H         1 <0>         0.1410
     43 H12        -4.6760    0.8837   -2.1153 H         1 <0>         0.1420
     44 H13        -6.4237   -0.1792   -3.6404 H         1 <0>         0.4121
     45 H14        -9.0409    0.5241   -3.8618 H         1 <0>         0.1053
     46 H15        -8.7283   -1.0054   -4.7168 H         1 <0>         0.1049
     47 H16       -10.3947   -2.1490   -3.2802 H         1 <0>         0.0768
     48 H17       -10.7073   -0.6195   -2.4252 H         1 <0>         0.0767
     49 H18       -11.0816   -0.1858   -5.1908 H         1 <0>         0.3943
     50 H19       -13.2664   -0.1728   -6.0127 H         1 <0>         0.3934
     51 H20       -14.6969   -3.0040   -5.9244 H         1 <0>         0.0574
     52 H21       -14.5393   -2.9262   -4.1532 H         1 <0>         0.0877
     53 H22       -16.6612   -4.0282   -4.8103 H         1 <0>         0.0716
     54 H23       -16.9555   -2.8730   -6.9846 H         1 <0>         0.0619
     55 H24       -18.4069   -2.7018   -5.9687 H         1 <0>         0.0646
     56 H25       -17.7913   -0.5386   -7.0128 H         1 <0>         0.0745
     57 H26       -15.6694    0.5634   -6.3556 H         1 <0>         0.0676
     58 H27       -15.3568   -0.9662   -7.2106 H         1 <0>         0.0676
     59 H28       -17.7068    0.8036   -4.9295 H         1 <0>         0.0619
     60 H29       -18.8457   -0.5548   -4.7685 H         1 <0>         0.0646
     61 H30       -17.4126   -0.3516   -2.7552 H         1 <0>         0.0717
     62 H31       -18.1858   -2.5926   -3.4824 H         1 <0>         0.0620
     63 H32       -16.5767   -2.6860   -2.7271 H         1 <0>         0.0653
     64 H33       -14.9781   -0.7792   -2.9530 H         1 <0>         0.0878
     65 H34       -15.4483    0.6726   -3.8693 H         1 <0>         0.0575
@<TRIPOS>BOND
     1    1    2 1
     2    1   32 1
     3    1   33 1
     4    1   34 1
     5    2    3 1
     6    2    4 1
     7    2   35 1
     8    3   36 1
     9    3   37 1
    10    3   38 1
    11    4    5 2
    12    4    6 am
    13    6    7 1
    14    6   39 1
    15    7   12 ar
    16    7    8 ar
    17    8    9 ar
    18    8   40 1
    19    9   10 ar
    20    9   41 1
    21   10   11 ar
    22   10   42 1
    23   11   12 ar
    24   11   13 1
    25   12   43 1
    26   13   14 am
    27   13   44 1
    28   14   15 2
    29   14   16 1
    30   16   17 1
    31   16   45 1
    32   16   46 1
    33   17   18 1
    34   17   47 1
    35   17   48 1
    36   18   19 am
    37   18   49 1
    38   19   20 2
    39   19   21 am
    40   21   22 1
    41   21   50 1
    42   22   27 1
    43   22   31 1
    44   22   23 1
    45   23   24 1
    46   23   51 1
    47   23   52 1
    48   24   30 1
    49   24   25 1
    50   24   53 1
    51   25   26 1
    52   25   54 1
    53   25   55 1
    54   26   27 1
    55   26   28 1
    56   26   56 1
    57   27   57 1
    58   27   58 1
    59   28   29 1
    60   28   59 1
    61   28   60 1
    62   29   30 1
    63   29   31 1
    64   29   61 1
    65   30   62 1
    66   30   63 1
    67   31   64 1
    68   31   65 1
@<TRIPOS>MOLECULE
ZINC65786991
   46    48     0     0     0
SMALL
USER_CHARGES

@<TRIPOS>ATOM
      1 C1          2.5348   -1.0801   -4.2261 C.2       1 <0>        -0.1587
      2 C2          1.3024   -0.7933   -3.8870 C.2       1 <0>        -0.1827
      3 C3          0.1668   -1.6566   -4.3729 C.3       1 <0>         0.1645
      4 N1         -0.6156   -2.1252   -3.2264 N.am      1 <0>        -0.7388
      5 C4         -1.6880   -2.9180   -3.4212 C.2       1 <0>         0.7028
      6 O1         -2.0061   -3.2443   -4.5485 O.2       1 <0>        -0.5707
      7 N2         -2.4078   -3.3491   -2.3664 N.am      1 <0>        -0.6860
      8 C5         -3.5775   -4.0925   -2.5732 C.ar      1 <0>         0.1507
      9 C6         -4.6608   -3.9342   -1.7192 C.ar      1 <0>        -0.1275
     10 C7         -5.8132   -4.6666   -1.9229 C.ar      1 <0>        -0.1229
     11 C8         -5.8891   -5.5612   -2.9821 C.ar      1 <0>         0.1395
     12 C9         -4.8060   -5.7192   -3.8365 C.ar      1 <0>        -0.0975
     13 C10        -3.6553   -4.9832   -3.6356 C.ar      1 <0>        -0.0995
     14 N3         -7.0586   -6.3049   -3.1886 N.am      1 <0>        -0.6778
     15 C11        -6.9810   -7.5675   -3.6537 C.2       1 <0>         0.7045
     16 O2         -5.9039   -8.0325   -3.9735 O.2       1 <0>        -0.5518
     17 N4         -8.0972   -8.3147   -3.7643 N.am      1 <0>        -0.6820
     18 C12        -8.0044   -9.6611   -4.1396 C.ar      1 <0>         0.1473
     19 C13        -6.9188  -10.4265   -3.7182 C.ar      1 <0>        -0.0611
     20 C14        -6.8129  -11.7521   -4.0789 C.ar      1 <0>        -0.1108
     21 C15        -7.7931  -12.3387   -4.8696 C.ar      1 <0>         0.1325
     22 C16        -8.8905  -11.5710   -5.2970 C.ar      1 <0>        -0.1387
     23 C17        -8.9930  -10.2280   -4.9222 C.ar      1 <0>        -0.0843
     24 C18        -9.9182  -12.2018   -6.1312 C.2       1 <0>        -0.0012
     25 C19        -9.7647  -13.5101   -6.4577 C.2       1 <0>        -0.2411
     26 C20        -8.6370  -14.2212   -5.9935 C.2       1 <0>         0.5059
     27 O3         -8.5108  -15.3947   -6.2934 O.2       1 <0>        -0.4618
     28 O4         -7.7005  -13.6372   -5.2307 O.3       1 <0>        -0.2689
     29 H1          3.3486   -0.4613   -3.8779 H         1 <0>         0.1053
     30 H2          2.7374   -1.9378   -4.8503 H         1 <0>         0.1017
     31 H3          1.1002    0.0619   -3.2592 H         1 <0>         0.1162
     32 H4         -0.4734   -1.0753   -5.0365 H         1 <0>         0.0774
     33 H5          0.5678   -2.5138   -4.9139 H         1 <0>         0.0732
     34 H6         -0.3618   -1.8649   -2.3271 H         1 <0>         0.3992
     35 H7         -2.1161   -3.1448   -1.4642 H         1 <0>         0.4071
     36 H8         -4.6017   -3.2384   -0.8953 H         1 <0>         0.1301
     37 H9         -6.6555   -4.5440   -1.2582 H         1 <0>         0.1300
     38 H10        -4.8649   -6.4152   -4.6601 H         1 <0>         0.1442
     39 H11        -2.8142   -5.1033   -4.3023 H         1 <0>         0.1447
     40 H12        -7.9241   -5.9110   -2.9969 H         1 <0>         0.4089
     41 H13        -8.9648   -7.9202   -3.5840 H         1 <0>         0.4112
     42 H14        -6.1532   -9.9764   -3.1036 H         1 <0>         0.1524
     43 H15        -5.9670  -12.3356   -3.7468 H         1 <0>         0.1497
     44 H16        -9.8367   -9.6363   -5.2453 H         1 <0>         0.1437
     45 H17       -10.7741  -11.6407   -6.4762 H         1 <0>         0.1551
     46 H18       -10.5032  -14.0057   -7.0704 H         1 <0>         0.1657
@<TRIPOS>BOND
     1    1    2 2
     2    1   29 1
     3    1   30 1
     4    2    3 1
     5    2   31 1
     6    3    4 1
     7    3   32 1
     8    3   33 1
     9    4    5 am
    10    4   34 1
    11    5    6 2
    12    5    7 am
    13    7    8 1
    14    7   35 1
    15    8   13 ar
    16    8    9 ar
    17    9   10 ar
    18    9   36 1
    19   10   11 ar
    20   10   37 1
    21   11   12 ar
    22   11   14 1
    23   12   13 ar
    24   12   38 1
    25   13   39 1
    26   14   15 am
    27   14   40 1
    28   15   16 2
    29   15   17 am
    30   17   18 1
    31   17   41 1
    32   18   23 ar
    33   18   19 ar
    34   19   20 ar
    35   19   42 1
    36   20   21 ar
    37   20   43 1
    38   21   28 1
    39   21   22 ar
    40   22   23 ar
    41   22   24 1
    42   23   44 1
    43   24   25 2
    44   24   45 1
    45   25   26 1
    46   25   46 1
    47   26   27 2
    48   26   28 1
@<TRIPOS>MOLECULE
ZINC08920976
   65    68     0     0     0
SMALL
USER_CHARGES
4-acetyl-N-methyl-8-[4-[(4-methyl-1-piperidyl)sulfonyl]benzoyl]amino-7-thia-4-azabicyclo[4.3.0]nona-8,10-diene-9-carboxamide
@<TRIPOS>ATOM
      1 C1         -9.5166   -3.3807   -4.3106 C.3       1 <0>        -0.1490
      2 C2         -8.3165   -2.6664   -3.6857 C.3       1 <0>        -0.0921
      3 C3         -7.5177   -3.6585   -2.8374 C.3       1 <0>        -0.1282
      4 C4         -6.2981   -2.9485   -2.2414 C.3       1 <0>         0.1149
      5 N1         -6.7543   -1.7591   -1.5093 N.pl3     1 <0>        -0.9943
      6 C5         -7.6097   -0.7871   -2.2037 C.3       1 <0>         0.1149
      7 C6         -8.8100   -1.5186   -2.8018 C.3       1 <0>        -0.1286
      8 S1         -6.3184   -1.5221    0.0706 S.o2      1 <0>         2.6876
      9 O1         -6.0167   -2.8036    0.6053 O.2       1 <0>        -0.9474
     10 O2         -7.3038   -0.6715    0.6406 O.2       1 <0>        -0.9465
     11 C7         -4.8100   -0.6114    0.0639 C.ar      1 <0>        -0.6507
     12 C8         -4.8406    0.7718    0.0783 C.ar      1 <0>        -0.0238
     13 C9         -3.6633    1.4909    0.0726 C.ar      1 <0>        -0.0710
     14 C10        -2.4393    0.8198    0.0529 C.ar      1 <0>        -0.0824
     15 C11        -2.4157   -0.5758    0.0331 C.ar      1 <0>        -0.1048
     16 C12        -3.6003   -1.2828    0.0447 C.ar      1 <0>        -0.0237
     17 C13        -1.1741    1.5837    0.0468 C.2       1 <0>         0.5542
     18 O3         -1.1978    2.7990    0.0590 O.2       1 <0>        -0.4841
     19 N2          0.0059    0.9328    0.0277 N.am      1 <0>        -0.6137
     20 C14         1.1919    1.6489    0.0162 C.2       1 <0>         0.0731
     21 C15         2.4920    1.1639   -0.0087 C.2       1 <0>        -0.2228
     22 C16         3.5730    2.1359   -0.0145 C.2       1 <0>        -0.0470
     23 C17         3.1804    3.4283    0.0015 C.2       1 <0>        -0.2445
     24 S2          1.4120    3.3676    0.0219 S.3       1 <0>         0.2636
     25 C18         4.0670    4.6371   -0.0049 C.3       1 <0>         0.1958
     26 N3          5.4494    4.1639    0.2063 N.am      1 <0>        -0.6143
     27 C19         5.8703    2.9529   -0.5145 C.3       1 <0>         0.1126
     28 C20         5.0484    1.7567   -0.0306 C.3       1 <0>        -0.0773
     29 C21         6.2939    4.8168    1.0292 C.2       1 <0>         0.5197
     30 O4          7.3905    4.3547    1.2636 O.2       1 <0>        -0.5404
     31 C22         5.8756    6.1209    1.6579 C.3       1 <0>        -0.1792
     32 C23         2.7653   -0.2764   -0.0291 C.2       1 <0>         0.5762
     33 O5          2.8625   -0.8624   -1.0914 O.2       1 <0>        -0.5259
     34 N4          2.9089   -0.9514    1.1286 N.am      1 <0>        -0.7276
     35 C24         3.1820   -2.3906    1.1083 C.3       1 <0>         0.0834
     36 H1        -10.1537   -3.7793   -3.5211 H         1 <0>         0.0556
     37 H2        -10.0857   -2.6742   -4.9148 H         1 <0>         0.0563
     38 H3         -9.1653   -4.1975   -4.9411 H         1 <0>         0.0562
     39 H4         -7.6793   -2.2683   -4.4753 H         1 <0>         0.0731
     40 H5         -7.1864   -4.4876   -3.4627 H         1 <0>         0.0786
     41 H6         -8.1470   -4.0382   -2.0324 H         1 <0>         0.0706
     42 H7         -5.6228   -2.6478   -3.0424 H         1 <0>         0.0723
     43 H8         -5.7809   -3.6220   -1.5581 H         1 <0>         0.0946
     44 H9         -7.9576   -0.0350   -1.4956 H         1 <0>         0.0952
     45 H10        -7.0435   -0.3065   -3.0016 H         1 <0>         0.0722
     46 H11        -9.3986   -0.8245   -3.4018 H         1 <0>         0.0791
     47 H12        -9.4272   -1.9184   -1.9972 H         1 <0>         0.0704
     48 H13        -5.7882    1.2897    0.0936 H         1 <0>         0.1528
     49 H14        -3.6885    2.5705    0.0839 H         1 <0>         0.1529
     50 H15        -1.4722   -1.1010    0.0133 H         1 <0>         0.1352
     51 H16        -3.5835   -2.3626    0.0343 H         1 <0>         0.1510
     52 H17         0.0248   -0.0369    0.0179 H         1 <0>         0.4205
     53 H18         3.9919    5.1476   -0.9650 H         1 <0>         0.0931
     54 H19         3.7789    5.3133    0.7999 H         1 <0>         0.1070
     55 H20         5.7120    3.0935   -1.5838 H         1 <0>         0.0772
     56 H21         6.9275    2.7668   -0.3254 H         1 <0>         0.1011
     57 H22         5.3644    1.4807    0.9754 H         1 <0>         0.0835
     58 H23         5.2004    0.9140   -0.7050 H         1 <0>         0.0889
     59 H24         4.8370    6.3308    1.4023 H         1 <0>         0.0811
     60 H25         5.9763    6.0509    2.7409 H         1 <0>         0.0968
     61 H26         6.5110    6.9243    1.2851 H         1 <0>         0.0994
     62 H27         2.8315   -0.4843    1.9752 H         1 <0>         0.4044
     63 H28         3.2656   -2.7590    2.1308 H         1 <0>         0.0792
     64 H29         2.3675   -2.9078    0.6012 H         1 <0>         0.0616
     65 H30         4.1161   -2.5757    0.5779 H         1 <0>         0.0636
@<TRIPOS>BOND
     1    1    2 1
     2    1   36 1
     3    1   37 1
     4    1   38 1
     5    2    7 1
     6    2    3 1
     7    2   39 1
     8    3    4 1
     9    3   40 1
    10    3   41 1
    11    4    5 1
    12    4   42 1
    13    4   43 1
    14    5    6 1
    15    5    8 1
    16    6    7 1
    17    6   44 1
    18    6   45 1
    19    7   46 1
    20    7   47 1
    21    8    9 2
    22    8   10 2
    23    8   11 1
    24   11   16 ar
    25   11   12 ar
    26   12   13 ar
    27   12   48 1
    28   13   14 ar
    29   13   49 1
    30   14   15 ar
    31   14   17 1
    32   15   16 ar
    33   15   50 1
    34   16   51 1
    35   17   18 2
    36   17   19 am
    37   19   20 1
    38   19   52 1
    39   20   24 1
    40   20   21 2
    41   21   22 1
    42   21   32 1
    43   22   28 1
    44   22   23 2
    45   23   24 1
    46   23   25 1
    47   25   26 1
    48   25   53 1
    49   25   54 1
    50   26   27 1
    51   26   29 am
    52   27   28 1
    53   27   55 1
    54   27   56 1
    55   28   57 1
    56   28   58 1
    57   29   30 2
    58   29   31 1
    59   31   59 1
    60   31   60 1
    61   31   61 1
    62   32   33 2
    63   32   34 am
    64   34   35 1
    65   34   62 1
    66   35   63 1
    67   35   64 1
    68   35   65 1
@<TRIPOS>MOLECULE
ZINC12529609
   66    69     0     0     0
SMALL
USER_CHARGES
ethyl 2-ethyl-4-[[(3S)-2-ethylsulfonyl3,4-dihydro-1H-isoquinoline-3-carbonyl]amino]-1H-1,5-benzodiazepine-3-carboxylate
@<TRIPOS>ATOM
      1 C1         11.5520    5.1907   -0.9892 C.3       1 <0>        -0.1300
      2 C2         10.6086    5.2984    0.2105 C.3       1 <0>        -0.1204
      3 C3          9.2063    5.5606   -0.2751 C.2       1 <0>         0.3314
      4 C4          8.4061    4.5114   -0.6634 C.2       1 <0>        -0.2802
      5 C5          7.0089    4.7189   -1.0487 C.2       1 <0>         0.4882
      6 N1          6.5544    5.7019   -1.7478 N.2       1 <0>        -0.4983
      7 C6          7.2691    6.7372   -2.2766 C.ar      1 <0>         0.1329
      8 C7          6.9127    7.2331   -3.5322 C.ar      1 <0>        -0.0970
      9 C8          7.5612    8.3377   -4.0515 C.ar      1 <0>        -0.1066
     10 C9          8.5656    8.9564   -3.3327 C.ar      1 <0>        -0.1228
     11 C10         8.9413    8.4607   -2.0944 C.ar      1 <0>        -0.1107
     12 C11         8.3102    7.3463   -1.5704 C.ar      1 <0>         0.0954
     13 N2          8.7331    6.8347   -0.3295 N.pl3     1 <0>        -0.7081
     14 N3          6.0946    3.7714   -0.6291 N.am      1 <0>        -0.6271
     15 C12         4.7923    3.9031   -0.9500 C.2       1 <0>         0.5140
     16 O1          4.4228    4.8531   -1.6069 O.2       1 <0>        -0.4628
     17 C13         3.7952    2.8699   -0.4924 C.3       1 <0>         0.1408
     18 H1          4.3075    2.0802    0.0572 H         1 <0>         0.1056
     19 C14         3.0758    2.2747   -1.7018 C.3       1 <0>        -0.0864
     20 C15         1.8703    1.4813   -1.2716 C.ar      1 <0>        -0.0668
     21 C16         1.3620    0.5461   -2.1652 C.ar      1 <0>        -0.1160
     22 C17         0.2516   -0.2043   -1.8395 C.ar      1 <0>        -0.1152
     23 C18        -0.3653   -0.0239   -0.6153 C.ar      1 <0>        -0.1167
     24 C19         0.1385    0.9020    0.2746 C.ar      1 <0>        -0.1121
     25 C20         1.2608    1.6525   -0.0492 C.ar      1 <0>        -0.0969
     26 C21         1.7764    2.6269    0.9800 C.3       1 <0>         0.1645
     27 N4          2.7837    3.5018    0.3707 N.pl3     1 <0>        -0.9921
     28 S1          2.7830    5.1354    0.6424 S.o2      1 <0>         2.6021
     29 O2          1.9467    5.3138    1.7774 O.2       1 <0>        -0.9588
     30 O3          4.1567    5.4955    0.6910 O.2       1 <0>        -0.9348
     31 C22         2.0008    5.8523   -0.8289 C.3       1 <0>        -0.6230
     32 C23         1.9456    7.3747   -0.6865 C.3       1 <0>        -0.1392
     33 C24         8.9630    3.1587   -0.6916 C.2       1 <0>         0.5183
     34 O4         10.1138    2.9674   -0.3463 O.2       1 <0>        -0.4985
     35 O5          8.2004    2.1236   -1.1006 O.3       1 <0>        -0.3557
     36 C25         8.8089    0.8306   -1.1028 C.3       1 <0>         0.0623
     37 C26         7.7980   -0.2079   -1.5932 C.3       1 <0>        -0.1537
     38 H2         11.2307    4.3709   -1.6317 H         1 <0>         0.0620
     39 H3         11.5311    6.1235   -1.5528 H         1 <0>         0.0510
     40 H4         12.5663    5.0011   -0.6380 H         1 <0>         0.0692
     41 H5         10.9299    6.1183    0.8529 H         1 <0>         0.0784
     42 H6         10.6295    4.3656    0.7740 H         1 <0>         0.1213
     43 H7          6.1288    6.7526   -4.0987 H         1 <0>         0.1322
     44 H8          7.2819    8.7183   -5.0229 H         1 <0>         0.1288
     45 H9          9.0592    9.8279   -3.7367 H         1 <0>         0.1279
     46 H10         9.7291    8.9453   -1.5369 H         1 <0>         0.1264
     47 H11         8.6882    7.3802    0.4714 H         1 <0>         0.4193
     48 H12         6.3902    3.0115   -0.1037 H         1 <0>         0.4178
     49 H13         3.7615    1.6210   -2.2409 H         1 <0>         0.0947
     50 H14         2.7571    3.0819   -2.3614 H         1 <0>         0.0955
     51 H15         1.8405    0.4059   -3.1232 H         1 <0>         0.1238
     52 H16        -0.1353   -0.9305   -2.5390 H         1 <0>         0.1242
     53 H17        -1.2381   -0.6052   -0.3570 H         1 <0>         0.1253
     54 H18        -0.3464    1.0473    1.2287 H         1 <0>         0.1269
     55 H19         2.2259    2.0771    1.8069 H         1 <0>         0.0903
     56 H20         0.9493    3.2309    1.3531 H         1 <0>         0.1073
     57 H21         2.5820    5.5909   -1.7132 H         1 <0>         0.1587
     58 H22         0.9889    5.4599   -0.9301 H         1 <0>         0.1214
     59 H23         1.4756    7.8055   -1.5706 H         1 <0>         0.0812
     60 H24         1.3644    7.6361    0.1978 H         1 <0>         0.0640
     61 H25         2.9575    7.7671   -0.5853 H         1 <0>         0.0715
     62 H26         9.6738    0.8372   -1.7660 H         1 <0>         0.0692
     63 H27         9.1282    0.5776   -0.0918 H         1 <0>         0.0708
     64 H28         6.9330   -0.2145   -0.9299 H         1 <0>         0.0667
     65 H29         7.4786    0.0450   -2.6042 H         1 <0>         0.0670
     66 H30         8.2621   -1.1942   -1.5948 H         1 <0>         0.0814
@<TRIPOS>BOND
     1    1    2 1
     2    1   38 1
     3    1   39 1
     4    1   40 1
     5    2    3 1
     6    2   41 1
     7    2   42 1
     8    3   13 1
     9    3    4 2
    10    4    5 1
    11    4   33 1
    12    5    6 2
    13    5   14 1
    14    6    7 1
    15    7   12 ar
    16    7    8 ar
    17    8    9 ar
    18    8   43 1
    19    9   10 ar
    20    9   44 1
    21   10   11 ar
    22   10   45 1
    23   11   12 ar
    24   11   46 1
    25   12   13 1
    26   13   47 1
    27   14   15 am
    28   14   48 1
    29   15   16 2
    30   15   17 1
    31   17   18 1
    32   17   27 1
    33   17   19 1
    34   19   20 1
    35   19   49 1
    36   19   50 1
    37   20   25 ar
    38   20   21 ar
    39   21   22 ar
    40   21   51 1
    41   22   23 ar
    42   22   52 1
    43   23   24 ar
    44   23   53 1
    45   24   25 ar
    46   24   54 1
    47   25   26 1
    48   26   27 1
    49   26   55 1
    50   26   56 1
    51   27   28 1
    52   28   29 2
    53   28   30 2
    54   28   31 1
    55   31   32 1
    56   31   57 1
    57   31   58 1
    58   32   59 1
    59   32   60 1
    60   32   61 1
    61   33   34 2
    62   33   35 1
    63   35   36 1
    64   36   37 1
    65   36   62 1
    66   36   63 1
    67   37   64 1
    68   37   65 1
    69   37   66 1
@<TRIPOS>MOLECULE
ZINC33446183
   62    66     0     0     0
SMALL
USER_CHARGES
1-[7-methyl-4-oxo-3-[(E)-[4-oxo-3-[[(2R)-tetrahydrofuran-2-yl]methyl]-2-thioxo-thiazolidin-5-ylidene]methyl]pyrido[1,2-a]pyrimidin-2-yl]piperidine-4-carboxamide
@<TRIPOS>ATOM
      1 C1         -8.2225   -2.3570   -0.0942 C.3       1 <0>        -0.1118
      2 C2         -7.8881   -2.4676    1.3710 C.2       1 <0>        -0.1320
      3 C3         -8.4743   -3.4757    2.1484 C.2       1 <0>        -0.0152
      4 C4         -8.1660   -3.5684    3.4732 C.2       1 <0>        -0.1402
      5 C5         -7.2639   -2.6509    4.0412 C.2       1 <0>         0.4251
      6 N1         -6.9686   -2.7495    5.3376 N.2       1 <0>        -0.5721
      7 C6         -6.1204   -1.9163    5.9228 C.2       1 <0>         0.4646
      8 C7         -5.5191   -0.8855    5.1629 C.2       1 <0>        -0.3436
      9 C8         -5.8406   -0.7898    3.7879 C.2       1 <0>         0.5363
     10 O1         -5.3427    0.0802    3.0941 O.2       1 <0>        -0.5193
     11 N2         -6.7084   -1.6782    3.2574 N.am      1 <0>        -0.4259
     12 C9         -7.0239   -1.5934    1.9339 C.2       1 <0>         0.1014
     13 C10        -4.6149    0.0230    5.7610 C.2       1 <0>         0.1500
     14 C11        -5.0082    0.7717    6.8323 C.2       1 <0>        -0.2381
     15 C12        -6.2962    0.8950    7.4273 C.2       1 <0>         0.5515
     16 O2         -7.2517    0.2812    6.9857 O.2       1 <0>        -0.4585
     17 N3         -6.4267    1.6976    8.4692 N.am      1 <0>        -0.5198
     18 C13        -5.3654    2.3740    8.9625 C.2       1 <0>         0.2907
     19 S1         -5.3021    3.4501   10.2925 S.2       1 <0>        -0.3146
     20 S2         -4.0455    1.8591    7.8744 S.3       1 <0>         0.0354
     21 C14        -7.7389    1.8518    9.1021 C.3       1 <0>         0.0905
     22 C15        -8.4907    3.0094    8.4419 C.3       1 <0>         0.0594
     23 H1         -8.5269    2.8191    7.3591 H         1 <0>         0.0696
     24 C16        -9.8791    3.1905    9.0944 C.3       1 <0>        -0.1410
     25 C17       -10.0862    4.7215    9.1177 C.3       1 <0>        -0.1516
     26 C18        -8.7983    5.2842    8.4766 C.3       1 <0>         0.0449
     27 O3         -7.8022    4.2590    8.6828 O.3       1 <0>        -0.3492
     28 N4         -5.8314   -2.0488    7.2634 N.pl3     1 <0>        -0.4675
     29 C19        -4.4198   -2.3998    7.4652 C.3       1 <0>         0.0575
     30 C20        -4.1008   -2.3957    8.9620 C.3       1 <0>        -0.1075
     31 C21        -5.0042   -3.4061    9.6742 C.3       1 <0>        -0.1112
     32 C22        -6.4685   -3.0461    9.4082 C.3       1 <0>        -0.0999
     33 C23        -6.7189   -3.0314    7.8985 C.3       1 <0>         0.0654
     34 C24        -4.7365   -3.3637   11.1567 C.2       1 <0>         0.5219
     35 O4         -5.6283   -3.0741   11.9259 O.2       1 <0>        -0.5460
     36 N5         -3.5060   -3.6476   11.6276 N.am      1 <0>        -0.8781
     37 H2         -8.9363   -3.1479   -0.3681 H         1 <0>         0.0800
     38 H3         -7.3043   -2.4697   -0.6894 H         1 <0>         0.0806
     39 H4         -8.6710   -1.3728   -0.2946 H         1 <0>         0.0803
     40 H5         -9.1654   -4.1747    1.7009 H         1 <0>         0.1578
     41 H6         -8.6112   -4.3412    4.0822 H         1 <0>         0.1708
     42 H7         -6.5776   -0.8191    1.3275 H         1 <0>         0.1850
     43 H8         -3.5947    0.1261    5.3627 H         1 <0>         0.1500
     44 H9         -8.3159    0.9232    8.9807 H         1 <0>         0.1153
     45 H10        -7.6067    2.0639   10.1733 H         1 <0>         0.1172
     46 H11       -10.6396    2.6792    8.4860 H         1 <0>         0.0790
     47 H12        -9.8679    2.7589   10.1061 H         1 <0>         0.0822
     48 H13       -10.9842    4.9789    8.5370 H         1 <0>         0.0769
     49 H14       -10.2126    5.0587   10.1571 H         1 <0>         0.0793
     50 H15        -8.9731    5.4723    7.4070 H         1 <0>         0.0562
     51 H16        -8.5222    6.2256    8.9741 H         1 <0>         0.0957
     52 H17        -4.2285   -3.4014    7.0527 H         1 <0>         0.0603
     53 H18        -3.7822   -1.6643    6.9528 H         1 <0>         0.0907
     54 H19        -3.0471   -2.6730    9.1131 H         1 <0>         0.0856
     55 H20        -4.2777   -1.3904    9.3719 H         1 <0>         0.0803
     56 H21        -4.7932   -4.4228    9.3113 H         1 <0>         0.0986
     57 H22        -7.1218   -3.7931    9.8828 H         1 <0>         0.0838
     58 H23        -6.6836   -2.0520    9.8271 H         1 <0>         0.0774
     59 H24        -7.7667   -2.7589    7.7037 H         1 <0>         0.0939
     60 H25        -6.5166   -4.0300    7.4840 H         1 <0>         0.0608
     61 H26        -3.3105   -3.6167   12.7097 H         1 <0>         0.4231
     62 H27        -2.6972   -3.9102   10.9299 H         1 <0>         0.4182
@<TRIPOS>BOND
     1    1    2 1
     2    1   37 1
     3    1   38 1
     4    1   39 1
     5    2   12 2
     6    2    3 1
     7    3    4 2
     8    3   40 1
     9    4    5 1
    10    4   41 1
    11    5   11 1
    12    5    6 2
    13    6    7 1
    14    7    8 2
    15    7   28 1
    16    8    9 1
    17    8   13 1
    18    9   10 2
    19    9   11 am
    20   11   12 1
    21   12   42 1
    22   13   14 2
    23   13   43 1
    24   14   20 1
    25   14   15 1
    26   15   16 2
    27   15   17 am
    28   17   18 1
    29   17   21 1
    30   18   19 2
    31   18   20 1
    32   21   22 1
    33   21   44 1
    34   21   45 1
    35   22   23 1
    36   22   27 1
    37   22   24 1
    38   24   25 1
    39   24   46 1
    40   24   47 1
    41   25   26 1
    42   25   48 1
    43   25   49 1
    44   26   27 1
    45   26   50 1
    46   26   51 1
    47   28   33 1
    48   28   29 1
    49   29   30 1
    50   29   52 1
    51   29   53 1
    52   30   31 1
    53   30   54 1
    54   30   55 1
    55   31   32 1
    56   31   34 1
    57   31   56 1
    58   32   33 1
    59   32   57 1
    60   32   58 1
    61   33   59 1
    62   33   60 1
    63   34   35 2
    64   34   36 am
    65   36   61 1
    66   36   62 1
@<TRIPOS>MOLECULE
ZINC39729296
   55    58     0     0     0
SMALL
USER_CHARGES

@<TRIPOS>ATOM
      1 C1          2.5060    2.9772    6.8640 C.ar      1 <0>        -0.1204
      2 C2          3.8448    3.1411    7.1677 C.ar      1 <0>        -0.0938
      3 C3          4.8127    2.6382    6.3191 C.ar      1 <0>        -0.1211
      4 C4          4.4417    1.9702    5.1655 C.ar      1 <0>        -0.0242
      5 C5          3.1020    1.8061    4.8624 C.ar      1 <0>        -0.1157
      6 C6          2.1347    2.3101    5.7118 C.ar      1 <0>        -0.0764
      7 C7          2.6971    1.0791    3.6060 C.3       1 <0>         0.1284
      8 N1          2.6439   -0.3608    3.8706 N.am      1 <0>        -0.5160
      9 C8          3.6781   -1.1201    3.5535 C.2       1 <0>         0.5342
     10 O1          4.6754   -0.6396    3.0444 O.2       1 <0>        -0.4306
     11 C9          3.5940   -2.5157    3.8239 C.2       1 <0>        -0.2402
     12 C10         4.5105   -3.5010    3.5957 C.2       1 <0>         0.1573
     13 C11         5.7868   -3.1742    3.0810 C.2       1 <0>        -0.4022
     14 C12         6.9509   -3.3443    3.8669 C.2       1 <0>         0.5148
     15 N2          8.1336   -3.0299    3.3589 N.2       1 <0>        -0.5831
     16 C13         8.2588   -2.5545    2.1195 C.2       1 <0>         0.4426
     17 C14         9.5404   -2.2383    1.6341 C.2       1 <0>        -0.1519
     18 C15         9.6786   -1.7515    0.3681 C.2       1 <0>        -0.0144
     19 C16         8.5417   -1.5732   -0.4319 C.2       1 <0>        -0.1793
     20 C17         7.3174   -1.8825    0.0510 C.2       1 <0>         0.1180
     21 N3          7.1686   -2.3702    1.3153 N.am      1 <0>        -0.4339
     22 C18         5.9320   -2.6744    1.7648 C.2       1 <0>         0.5601
     23 O2          4.9568   -2.5167    1.0507 O.2       1 <0>        -0.5196
     24 N4          6.8554   -3.8329    5.1516 N.pl3     1 <0>        -0.6874
     25 C19         8.0641   -4.0070    5.9608 C.3       1 <0>         0.1281
     26 C20         7.6823   -4.5593    7.3356 C.3       1 <0>         0.0445
     27 O3          7.1349   -5.8709    7.1867 O.3       1 <0>        -0.3783
     28 C21         6.7435   -6.4807    8.4184 C.3       1 <0>         0.0609
     29 C22         6.1749   -7.8735    8.1399 C.3       1 <0>         0.0770
     30 O4          7.2053   -8.7121    7.6135 O.3       1 <0>        -0.5671
     31 S1          1.9617   -2.6259    4.5442 S.3       1 <0>         0.0510
     32 C23         1.5399   -0.8931    4.4407 C.2       1 <0>         0.2925
     33 S2          0.1021   -0.1068    4.9361 S.2       1 <0>        -0.3558
     34 Cl1         5.6570    1.3387    4.0988 Cl        1 <0>        -0.0380
     35 H1          1.7499    3.3668    7.5295 H         1 <0>         0.1333
     36 H2          4.1343    3.6625    8.0681 H         1 <0>         0.1335
     37 H3          5.8585    2.7669    6.5561 H         1 <0>         0.1329
     38 H4          1.0888    2.1824    5.4750 H         1 <0>         0.1513
     39 H5          1.7147    1.4263    3.2859 H         1 <0>         0.1167
     40 H6          3.4262    1.2775    2.8205 H         1 <0>         0.1183
     41 H7          4.2612   -4.5301    3.8081 H         1 <0>         0.1446
     42 H8         10.4090   -2.3797    2.2600 H         1 <0>         0.1680
     43 H9         10.6575   -1.5048   -0.0156 H         1 <0>         0.1558
     44 H10         8.6438   -1.1877   -1.4356 H         1 <0>         0.1614
     45 H11         6.4468   -1.7415   -0.5724 H         1 <0>         0.1821
     46 H12         5.9878   -4.0617    5.5202 H         1 <0>         0.4154
     47 H13         8.7373   -4.7049    5.4630 H         1 <0>         0.0853
     48 H14         8.5623   -3.0450    6.0814 H         1 <0>         0.0890
     49 H15         8.5690   -4.6053    7.9678 H         1 <0>         0.0723
     50 H16         6.9410   -3.9064    7.7964 H         1 <0>         0.0570
     51 H17         7.6108   -6.5665    9.0730 H         1 <0>         0.0591
     52 H18         5.9827   -5.8676    8.9017 H         1 <0>         0.0653
     53 H19         5.7950   -8.3029    9.0669 H         1 <0>         0.0627
     54 H20         5.3637   -7.7967    7.4159 H         1 <0>         0.0548
     55 H21         6.9155   -9.6127    7.4131 H         1 <0>         0.3813
@<TRIPOS>BOND
     1    1    6 ar
     2    1    2 ar
     3    1   35 1
     4    2    3 ar
     5    2   36 1
     6    3    4 ar
     7    3   37 1
     8    4    5 ar
     9    4   34 1
    10    5    6 ar
    11    5    7 1
    12    6   38 1
    13    7    8 1
    14    7   39 1
    15    7   40 1
    16    8   32 1
    17    8    9 am
    18    9   10 2
    19    9   11 1
    20   11   12 2
    21   11   31 1
    22   12   13 1
    23   12   41 1
    24   13   22 1
    25   13   14 2
    26   14   15 1
    27   14   24 1
    28   15   16 2
    29   16   21 1
    30   16   17 1
    31   17   18 2
    32   17   42 1
    33   18   19 1
    34   18   43 1
    35   19   20 2
    36   19   44 1
    37   20   21 1
    38   20   45 1
    39   21   22 am
    40   22   23 2
    41   24   25 1
    42   24   46 1
    43   25   26 1
    44   25   47 1
    45   25   48 1
    46   26   27 1
    47   26   49 1
    48   26   50 1
    49   27   28 1
    50   28   29 1
    51   28   51 1
    52   28   52 1
    53   29   30 1
    54   29   53 1
    55   29   54 1
    56   30   55 1
    57   31   32 1
    58   32   33 2
@<TRIPOS>MOLECULE
ZINC49504889
   59    63     0     0     0
SMALL
USER_CHARGES

@<TRIPOS>ATOM
      1 C1          0.0116    1.5029    0.0359 C.3       1 <0>        -0.1129
      2 C2          0.0242   -0.0040    0.0175 C.ar      1 <0>        -0.0831
      3 C3         -0.5689   -0.7116    1.0457 C.ar      1 <0>        -0.0939
      4 C4         -0.5592   -2.0927    1.0330 C.ar      1 <0>        -0.1245
      5 C5          0.0473   -2.7753   -0.0150 C.ar      1 <0>         0.1364
      6 C6          0.6434   -2.0673   -1.0492 C.ar      1 <0>        -0.1052
      7 C7          0.6271   -0.6799   -1.0357 C.ar      1 <0>         0.1573
      8 N1          1.2224    0.0376   -2.0791 N.am      1 <0>        -0.5797
      9 C8          2.6282    0.4588   -2.0979 C.3       1 <0>         0.1032
     10 C9          2.9341    0.8081   -3.5713 C.3       1 <0>        -0.1317
     11 C10         1.5300    1.1720   -4.1071 C.3       1 <0>        -0.1534
     12 C11         0.5817    0.4248   -3.1955 C.2       1 <0>         0.5203
     13 O1         -0.5873    0.2088   -3.4359 O.2       1 <0>        -0.5156
     14 N2          0.0572   -4.1724   -0.0271 N.am      1 <0>        -0.6415
     15 C12        -0.0419   -4.8370   -1.1955 C.2       1 <0>         0.5078
     16 O2         -0.0554   -4.2240   -2.2430 O.2       1 <0>        -0.4936
     17 C13        -0.1352   -6.3276   -1.2012 C.2       1 <0>         0.5133
     18 O3         -0.1218   -6.9404   -0.1538 O.2       1 <0>        -0.5106
     19 N3         -0.2343   -6.9921   -2.3695 N.am      1 <0>        -0.6972
     20 C14        -0.3258   -8.4542   -2.3751 C.3       1 <0>         0.1238
     21 C15        -0.4281   -8.9533   -3.8178 C.3       1 <0>        -0.0778
     22 C16        -0.5222  -10.4573   -3.8236 C.2       1 <0>         0.0926
     23 C17        -1.7202  -11.0431   -3.8758 C.2       1 <0>        -0.1762
     24 S1         -1.2787  -12.7740   -3.8595 S.3       1 <0>         0.1832
     25 C18         0.4843  -12.5641   -3.7836 C.2       1 <0>         0.2262
     26 N4          0.6265  -11.2098   -3.7808 N.pl3     1 <0>        -0.3468
     27 N5          2.0299  -11.0052   -3.7264 N.2       1 <0>        -0.2844
     28 C19         2.6043  -12.1868   -3.7064 C.2       1 <0>         0.3017
     29 N6          1.6566  -13.1319   -3.7338 N.2       1 <0>        -0.4728
     30 C20         4.0661  -12.4337   -3.6510 C.ar      1 <0>        -0.0616
     31 C21         4.9554  -11.3618   -3.6096 C.ar      1 <0>        -0.0502
     32 C22         6.3143  -11.5968   -3.5583 C.ar      1 <0>        -0.1355
     33 C23         6.7957  -12.8939   -3.5478 C.ar      1 <0>        -0.0663
     34 C24         5.9199  -13.9628   -3.5891 C.ar      1 <0>        -0.1609
     35 C25         4.5558  -13.7402   -3.6345 C.ar      1 <0>         0.1490
     36 F1          3.6998  -14.7848   -3.6687 F         1 <0>        -0.1131
     37 H1         -0.8836    1.8649   -0.4696 H         1 <0>         0.0730
     38 H2          0.0132    1.8537    1.0679 H         1 <0>         0.0711
     39 H3          0.8963    1.8799   -0.4774 H         1 <0>         0.0657
     40 H4         -1.0408   -0.1836    1.8611 H         1 <0>         0.1364
     41 H5         -1.0230   -2.6429    1.8384 H         1 <0>         0.1343
     42 H6          1.1157   -2.5951   -1.8646 H         1 <0>         0.1424
     43 H7          2.7678    1.3356   -1.4656 H         1 <0>         0.0768
     44 H8          3.2704   -0.3554   -1.7622 H         1 <0>         0.0810
     45 H9          3.6100    1.6606   -3.6379 H         1 <0>         0.0952
     46 H10         3.3421   -0.0535   -4.0999 H         1 <0>         0.0845
     47 H11         1.3627    2.2470   -4.0395 H         1 <0>         0.1081
     48 H12         1.4140    0.8309   -5.1358 H         1 <0>         0.1051
     49 H13         0.1354   -4.6641    0.8054 H         1 <0>         0.4250
     50 H14        -0.2450   -6.5023   -3.2067 H         1 <0>         0.4160
     51 H15         0.5638   -8.8757   -1.9071 H         1 <0>         0.0782
     52 H16        -1.2106   -8.7650   -1.8196 H         1 <0>         0.0833
     53 H17        -1.3177   -8.5318   -4.2859 H         1 <0>         0.1081
     54 H18         0.4567   -8.6425   -4.3734 H         1 <0>         0.0964
     55 H19        -2.6996  -10.5897   -3.9171 H         1 <0>         0.2281
     56 H20         4.5819  -10.3485   -3.6181 H         1 <0>         0.1408
     57 H21         7.0037  -10.7662   -3.5265 H         1 <0>         0.1387
     58 H22         7.8602  -13.0721   -3.5075 H         1 <0>         0.1401
     59 H23         6.3013  -14.9732   -3.5814 H         1 <0>         0.1451
@<TRIPOS>BOND
     1    1    2 1
     2    1   37 1
     3    1   38 1
     4    1   39 1
     5    2    7 ar
     6    2    3 ar
     7    3    4 ar
     8    3   40 1
     9    4    5 ar
    10    4   41 1
    11    5    6 ar
    12    5   14 1
    13    6    7 ar
    14    6   42 1
    15    7    8 1
    16    8   12 am
    17    8    9 1
    18    9   10 1
    19    9   43 1
    20    9   44 1
    21   10   11 1
    22   10   45 1
    23   10   46 1
    24   11   12 1
    25   11   47 1
    26   11   48 1
    27   12   13 2
    28   14   15 am
    29   14   49 1
    30   15   16 2
    31   15   17 1
    32   17   18 2
    33   17   19 am
    34   19   20 1
    35   19   50 1
    36   20   21 1
    37   20   51 1
    38   20   52 1
    39   21   22 1
    40   21   53 1
    41   21   54 1
    42   22   26 1
    43   22   23 2
    44   23   24 1
    45   23   55 1
    46   24   25 1
    47   25   29 2
    48   25   26 1
    49   26   27 1
    50   27   28 2
    51   28   29 1
    52   28   30 1
    53   30   35 ar
    54   30   31 ar
    55   31   32 ar
    56   31   56 1
    57   32   33 ar
    58   32   57 1
    59   33   34 ar
    60   33   58 1
    61   34   35 ar
    62   34   59 1
    63   35   36 1
@<TRIPOS>MOLECULE
ZINC08695960
   77    82     0     0     0
SMALL
USER_CHARGES
4-[cyclopropyl-[2-(4-phenyl-2-thioxo-imidazolidin-1-yl)acetyl]-amino]-N-(4-morpholinophenyl)-tetrahydrothiopyran-4-carboxamide
@<TRIPOS>ATOM
      1 C1         -9.4181    8.0678   -0.2859 C.ar      1 <0>        -0.1066
      2 C2         -9.2659    7.0679    0.6563 C.ar      1 <0>        -0.1200
      3 C3         -9.0482    5.7641    0.2517 C.ar      1 <0>        -0.1000
      4 C4         -8.9824    5.4604   -1.0953 C.ar      1 <0>        -0.1175
      5 C5         -9.1290    6.4612   -2.0375 C.ar      1 <0>        -0.0901
      6 C6         -9.3522    7.7640   -1.6329 C.ar      1 <0>        -0.1167
      7 C7         -8.7447    4.0391   -1.5365 C.3       1 <0>         0.1543
      8 H1         -8.9736    3.3452   -0.7277 H         1 <0>         0.1152
      9 C8         -7.2912    3.8509   -2.0127 C.3       1 <0>         0.0826
     10 N1         -7.4305    3.4617   -3.4240 N.pl3     1 <0>        -0.5628
     11 C9         -8.7310    3.4134   -3.7409 C.2       1 <0>         0.5720
     12 S1         -9.2968    2.9898   -5.3001 S.2       1 <0>        -0.6249
     13 N2         -9.5489    3.7270   -2.7274 N.pl3     1 <0>        -0.6679
     14 C10        -6.3229    3.1674   -4.3366 C.3       1 <0>         0.0964
     15 C11        -5.8991    4.4329   -5.0366 C.2       1 <0>         0.5093
     16 O1         -6.6126    5.4130   -5.0024 O.2       1 <0>        -0.4879
     17 N3         -4.7270    4.4755   -5.7007 N.am      1 <0>        -0.5833
     18 C12        -4.2778    5.7277   -6.3142 C.3       1 <0>         0.0487
     19 C13        -4.9794    7.0172   -5.8829 C.3       1 <0>        -0.1853
     20 C14        -5.2421    6.4310   -7.2716 C.3       1 <0>        -0.1796
     21 C15        -3.9023    3.2696   -5.8090 C.3       1 <0>         0.1562
     22 C16        -4.8104    2.0485   -5.9194 C.3       1 <0>        -0.1587
     23 C17        -5.8806    2.2890   -6.9886 C.3       1 <0>        -0.0945
     24 S2         -5.0582    2.5091   -8.5952 S.3       1 <0>        -0.2367
     25 C18        -3.8290    3.8045   -8.2534 C.3       1 <0>        -0.1088
     26 C19        -3.0011    3.3861   -7.0347 C.3       1 <0>        -0.1171
     27 C20        -3.0469    3.1415   -4.5750 C.2       1 <0>         0.5055
     28 O2         -2.7938    2.0444   -4.1236 O.2       1 <0>        -0.5019
     29 N4         -2.5630    4.2459   -3.9729 N.am      1 <0>        -0.6607
     30 C21        -1.6897    4.1245   -2.8834 C.ar      1 <0>         0.1158
     31 C22        -0.8552    3.0193   -2.7825 C.ar      1 <0>        -0.0955
     32 C23         0.0054    2.8997   -1.7096 C.ar      1 <0>        -0.1162
     33 C24         0.0362    3.8848   -0.7310 C.ar      1 <0>         0.0984
     34 C25        -0.8027    4.9873   -0.8291 C.ar      1 <0>        -0.1479
     35 C26        -1.6595    5.1092   -1.9049 C.ar      1 <0>        -0.1163
     36 N5          0.9078    3.7636    0.3565 N.pl3     1 <0>        -0.4869
     37 C27         0.6821    2.5006    1.0744 C.3       1 <0>         0.0198
     38 C28         1.6939    2.3816    2.2172 C.3       1 <0>         0.0612
     39 O3          1.5737    3.5204    3.0740 O.3       1 <0>        -0.3824
     40 C29         1.7881    4.7675    2.4076 C.3       1 <0>         0.0615
     41 C30         0.7773    4.9107    1.2667 C.3       1 <0>         0.0123
     42 H2         -9.5888    9.0863    0.0302 H         1 <0>         0.1255
     43 H3         -9.3173    7.3052    1.7087 H         1 <0>         0.1270
     44 H4         -8.9293    4.9829    0.9878 H         1 <0>         0.1263
     45 H5         -9.0731    6.2246   -3.0898 H         1 <0>         0.1233
     46 H6         -9.4715    8.5452   -2.3691 H         1 <0>         0.1254
     47 H7         -6.7997    3.0611   -1.4447 H         1 <0>         0.1011
     48 H8         -6.7383    4.7863   -1.9266 H         1 <0>         0.0972
     49 H9        -10.5177    3.7454   -2.7721 H         1 <0>         0.4462
     50 H10        -6.6461    2.4342   -5.0756 H         1 <0>         0.1603
     51 H11        -5.4823    2.7664   -3.7704 H         1 <0>         0.1150
     52 H12        -3.2131    5.7850   -6.5402 H         1 <0>         0.1347
     53 H13        -5.7751    6.9338   -5.1427 H         1 <0>         0.1410
     54 H14        -4.3761    7.9231   -5.8249 H         1 <0>         0.0944
     55 H15        -4.8116    6.9514   -8.1271 H         1 <0>         0.1034
     56 H16        -6.2106    5.9621   -7.4449 H         1 <0>         0.1043
     57 H17        -4.2144    1.1776   -6.1922 H         1 <0>         0.1145
     58 H18        -5.2932    1.8685   -4.9588 H         1 <0>         0.1076
     59 H19        -6.4489    3.1861   -6.7427 H         1 <0>         0.0965
     60 H20        -6.5525    1.4321   -7.0361 H         1 <0>         0.1227
     61 H21        -4.3378    4.7455   -8.0442 H         1 <0>         0.1152
     62 H22        -3.1743    3.9243   -9.1166 H         1 <0>         0.1128
     63 H23        -2.2299    4.1332   -6.8472 H         1 <0>         0.0854
     64 H24        -2.5300    2.4229   -7.2305 H         1 <0>         0.1041
     65 H25        -2.8191    5.1248   -4.2935 H         1 <0>         0.4120
     66 H26        -0.8791    2.2533   -3.5435 H         1 <0>         0.1429
     67 H27         0.6550    2.0404   -1.6315 H         1 <0>         0.1300
     68 H28        -0.7821    5.7512   -0.0659 H         1 <0>         0.1315
     69 H29        -2.3086    5.9687   -1.9836 H         1 <0>         0.1248
     70 H30        -0.3292    2.4887    1.4809 H         1 <0>         0.0537
     71 H31         0.8088    1.6638    0.3875 H         1 <0>         0.0941
     72 H32         2.7029    2.3396    1.8071 H         1 <0>         0.0633
     73 H33         1.4947    1.4744    2.7875 H         1 <0>         0.1042
     74 H34         2.7999    4.7948    2.0030 H         1 <0>         0.0628
     75 H35         1.6568    5.5862    3.1151 H         1 <0>         0.1037
     76 H36         0.9735    5.8331    0.7202 H         1 <0>         0.0940
     77 H37        -0.2327    4.9377    1.6757 H         1 <0>         0.0560
@<TRIPOS>BOND
     1    1    6 ar
     2    1    2 ar
     3    1   42 1
     4    2    3 ar
     5    2   43 1
     6    3    4 ar
     7    3   44 1
     8    4    5 ar
     9    4    7 1
    10    5    6 ar
    11    5   45 1
    12    6   46 1
    13    7    8 1
    14    7   13 1
    15    7    9 1
    16    9   10 1
    17    9   47 1
    18    9   48 1
    19   10   11 1
    20   10   14 1
    21   11   12 2
    22   11   13 1
    23   13   49 1
    24   14   15 1
    25   14   50 1
    26   14   51 1
    27   15   16 2
    28   15   17 am
    29   17   18 1
    30   17   21 1
    31   18   20 1
    32   18   19 1
    33   18   52 1
    34   19   20 1
    35   19   53 1
    36   19   54 1
    37   20   55 1
    38   20   56 1
    39   21   26 1
    40   21   22 1
    41   21   27 1
    42   22   23 1
    43   22   57 1
    44   22   58 1
    45   23   24 1
    46   23   59 1
    47   23   60 1
    48   24   25 1
    49   25   26 1
    50   25   61 1
    51   25   62 1
    52   26   63 1
    53   26   64 1
    54   27   28 2
    55   27   29 am
    56   29   30 1
    57   29   65 1
    58   30   35 ar
    59   30   31 ar
    60   31   32 ar
    61   31   66 1
    62   32   33 ar
    63   32   67 1
    64   33   34 ar
    65   33   36 1
    66   34   35 ar
    67   34   68 1
    68   35   69 1
    69   36   41 1
    70   36   37 1
    71   37   38 1
    72   37   70 1
    73   37   71 1
    74   38   39 1
    75   38   72 1
    76   38   73 1
    77   39   40 1
    78   40   41 1
    79   40   74 1
    80   40   75 1
    81   41   76 1
    82   41   77 1
@<TRIPOS>MOLECULE
ZINC10099917
   64    67     0     0     0
SMALL
USER_CHARGES
ethyl [2-[4-(cyclopropyl-methyl-sulfamoyl)benzoyl]amino-6-methyl-4,5,6,7-tetrahydrobenzothiophen-3-yl]carbonylaminoformate
@<TRIPOS>ATOM
      1 C1          4.6583   -7.1825    5.4609 C.3       1 <0>        -0.1540
      2 C2          3.3094   -7.1028    4.7433 C.3       1 <0>         0.0790
      3 O1          3.4142   -6.1947    3.6151 O.3       1 <0>        -0.3644
      4 C3          2.3062   -6.0115    2.8732 C.2       1 <0>         0.6396
      5 O2          1.2797   -6.5942    3.1603 O.2       1 <0>        -0.5051
      6 N1          2.3356   -5.1815    1.8117 N.am      1 <0>        -0.6579
      7 C4          1.2261   -4.9980    1.0688 C.2       1 <0>         0.5882
      8 O3          0.1979   -5.5817    1.3564 O.2       1 <0>        -0.4463
      9 C5          1.2581   -4.0959   -0.0848 C.2       1 <0>        -0.2281
     10 C6          0.9413   -2.6843    0.0529 C.2       1 <0>        -0.0634
     11 C7          1.0083   -1.9656   -1.0886 C.2       1 <0>        -0.2009
     12 S1          1.4838   -3.1330   -2.3318 S.3       1 <0>         0.2508
     13 C8          1.5922   -4.5575   -1.3515 C.2       1 <0>         0.0754
     14 N2          1.9297   -5.8441   -1.7374 N.am      1 <0>        -0.6161
     15 C9          2.2267   -6.1052   -3.0258 C.2       1 <0>         0.5546
     16 O4          2.1984   -5.2114   -3.8492 O.2       1 <0>        -0.4812
     17 C10         2.5868   -7.4782   -3.4375 C.ar      1 <0>        -0.0818
     18 C11         2.6259   -8.5058   -2.4934 C.ar      1 <0>        -0.1057
     19 C12         2.9572   -9.7862   -2.8855 C.ar      1 <0>        -0.0244
     20 C13         3.2615  -10.0508   -4.2091 C.ar      1 <0>        -0.6504
     21 C14         3.2303   -9.0358   -5.1489 C.ar      1 <0>        -0.0199
     22 C15         2.8950   -7.7520   -4.7713 C.ar      1 <0>        -0.0707
     23 S2          3.6903  -11.6878   -4.7001 S.o2      1 <0>         2.6930
     24 O5          3.1170  -12.5634   -3.7389 O.2       1 <0>        -0.9441
     25 O6          3.4000  -11.7847   -6.0877 O.2       1 <0>        -0.9446
     26 N3          5.3332  -11.8298   -4.5492 N.pl3     1 <0>        -0.9707
     27 C16         5.9158  -12.2892   -3.2860 C.3       1 <0>         0.0846
     28 C17         6.2041  -11.4959   -5.6789 C.3       1 <0>         0.0682
     29 C18         7.6896  -11.8395   -5.5514 C.3       1 <0>        -0.1727
     30 C19         7.2315  -10.3810   -5.4736 C.3       1 <0>        -0.1934
     31 C20         0.7357   -0.5020   -1.2518 C.3       1 <0>        -0.0317
     32 C21         0.0021   -0.0041    0.0020 C.3       1 <0>        -0.0877
     33 H1         -1.0198   -0.3833    0.0047 H         1 <0>         0.0776
     34 C22         0.7423   -0.5142    1.2418 C.3       1 <0>        -0.1134
     35 C23         0.5567   -2.0270    1.3727 C.3       1 <0>        -0.0627
     36 C24        -0.0187    1.5258    0.0104 C.3       1 <0>        -0.1478
     37 H2          4.5797   -7.8642    6.3078 H         1 <0>         0.0865
     38 H3          5.4169   -7.5486    4.7690 H         1 <0>         0.0682
     39 H4          4.9395   -6.1914    5.8171 H         1 <0>         0.0689
     40 H5          2.5509   -6.7367    5.4352 H         1 <0>         0.0756
     41 H6          3.0283   -8.0939    4.3871 H         1 <0>         0.0751
     42 H7          3.1552   -4.7162    1.5825 H         1 <0>         0.4220
     43 H8          1.9523   -6.5573   -1.0803 H         1 <0>         0.4192
     44 H9          2.3932   -8.2996   -1.4591 H         1 <0>         0.1342
     45 H10         2.9834  -10.5830   -2.1569 H         1 <0>         0.1505
     46 H11         3.4693   -9.2490   -6.1803 H         1 <0>         0.1536
     47 H12         2.8707   -6.9607   -5.5059 H         1 <0>         0.1532
     48 H13         6.0065  -13.3753   -3.3014 H         1 <0>         0.0681
     49 H14         6.9025  -11.8440   -3.1577 H         1 <0>         0.0781
     50 H15         5.2720  -11.9901   -2.4589 H         1 <0>         0.0746
     51 H16         5.7496  -11.5860   -6.6656 H         1 <0>         0.1464
     52 H17         8.0189  -12.3138   -4.6270 H         1 <0>         0.1035
     53 H18         8.2125  -12.1552   -6.4542 H         1 <0>         0.1072
     54 H19         7.4532   -9.7377   -6.3252 H         1 <0>         0.1059
     55 H20         7.2592   -9.8955   -4.4980 H         1 <0>         0.0983
     56 H21         0.1117   -0.3405   -2.1308 H         1 <0>         0.0834
     57 H22         1.6766    0.0364   -1.3648 H         1 <0>         0.0862
     58 H23         1.8041   -0.2864    1.1489 H         1 <0>         0.0686
     59 H24         0.3440   -0.0224    2.1293 H         1 <0>         0.0725
     60 H25         1.1964   -2.4060    2.1697 H         1 <0>         0.0713
     61 H26        -0.4852   -2.2487    1.6038 H         1 <0>         0.0821
     62 H27         1.0039    1.9031    0.0027 H         1 <0>         0.0575
     63 H28        -0.5459    1.8868   -0.8726 H         1 <0>         0.0584
     64 H29        -0.5289    1.8773    0.9072 H         1 <0>         0.0590
@<TRIPOS>BOND
     1    1    2 1
     2    1   37 1
     3    1   38 1
     4    1   39 1
     5    2    3 1
     6    2   40 1
     7    2   41 1
     8    3    4 1
     9    4    5 2
    10    4    6 am
    11    6    7 am
    12    6   42 1
    13    7    8 2
    14    7    9 1
    15    9   13 2
    16    9   10 1
    17   10   35 1
    18   10   11 2
    19   11   12 1
    20   11   31 1
    21   12   13 1
    22   13   14 1
    23   14   15 am
    24   14   43 1
    25   15   16 2
    26   15   17 1
    27   17   22 ar
    28   17   18 ar
    29   18   19 ar
    30   18   44 1
    31   19   20 ar
    32   19   45 1
    33   20   21 ar
    34   20   23 1
    35   21   22 ar
    36   21   46 1
    37   22   47 1
    38   23   24 2
    39   23   25 2
    40   23   26 1
    41   26   27 1
    42   26   28 1
    43   27   48 1
    44   27   49 1
    45   27   50 1
    46   28   30 1
    47   28   29 1
    48   28   51 1
    49   29   30 1
    50   29   52 1
    51   29   53 1
    52   30   54 1
    53   30   55 1
    54   31   32 1
    55   31   56 1
    56   31   57 1
    57   32   33 1
    58   32   34 1
    59   32   36 1
    60   34   35 1
    61   34   58 1
    62   34   59 1
    63   35   60 1
    64   35   61 1
    65   36   62 1
    66   36   63 1
    67   36   64 1
@<TRIPOS>MOLECULE
ZINC20286519
   70    74     0     0     0
SMALL
USER_CHARGES
N-[(1R)-1-benzyl-2-(4-cyclopentylpiperazin-1-yl)-2-oxo-ethyl]-2-oxo-3,4-dihydro-1H-quinoline-6-sulfonamide
@<TRIPOS>ATOM
      1 C1          2.1498    3.1954    0.5499 C.ar      1 <0>        -0.1161
      2 C2          3.3191    3.4632    1.2367 C.ar      1 <0>        -0.1128
      3 C3          3.4076    4.5850    2.0397 C.ar      1 <0>        -0.1133
      4 C4          2.3267    5.4388    2.1559 C.ar      1 <0>        -0.0838
      5 C5          1.1556    5.1681    1.4732 C.ar      1 <0>        -0.1127
      6 C6          1.0689    4.0492    0.6660 C.ar      1 <0>        -0.1134
      7 C7          2.4230    6.6614    3.0316 C.3       1 <0>        -0.0850
      8 C8          2.8665    7.8589    2.1888 C.3       1 <0>         0.1536
      9 H1          3.7781    7.6252    1.6192 H         1 <0>         0.1001
     10 C9          3.1161    9.0417    3.0886 C.2       1 <0>         0.5064
     11 O1          2.3523    9.9836    3.0779 O.2       1 <0>        -0.5133
     12 N1          4.1883    9.0527    3.9052 N.am      1 <0>        -0.6128
     13 C10         5.1688    7.9568    3.8785 C.3       1 <0>         0.1048
     14 C11         6.5712    8.5683    3.7315 C.3       1 <0>         0.0274
     15 N2          6.7801    9.5622    4.7928 N.3       1 <0>        -0.5306
     16 C12         5.8348   10.6799    4.6698 C.3       1 <0>         0.0384
     17 C13         4.4055   10.1579    4.8510 C.3       1 <0>         0.1151
     18 C14         8.1677   10.0444    4.7968 C.3       1 <0>         0.0773
     19 C15         8.4916   10.7337    3.4553 C.3       1 <0>        -0.1617
     20 C16         9.9601   10.3340    3.1676 C.3       1 <0>        -0.1221
     21 C17        10.0175    8.8663    3.6591 C.3       1 <0>        -0.1210
     22 C18         9.1379    8.8571    4.9265 C.3       1 <0>        -0.1175
     23 N3          1.8160    8.1926    1.2237 N.pl3     1 <0>        -1.1001
     24 S1          2.2214    8.7587   -0.2788 S.o2      1 <0>         2.6918
     25 O2          3.1897    9.7796   -0.0805 O.2       1 <0>        -0.9491
     26 O3          1.0008    8.9901   -0.9686 O.2       1 <0>        -0.9530
     27 C19         3.0382    7.4477   -1.1265 C.ar      1 <0>        -0.7051
     28 C20         4.4181    7.3591   -1.0941 C.ar      1 <0>         0.0081
     29 C21         5.0618    6.3328   -1.7571 C.ar      1 <0>        -0.1718
     30 C22         4.3214    5.3895   -2.4573 C.ar      1 <0>         0.2280
     31 C23         2.9363    5.4815   -2.4881 C.ar      1 <0>        -0.1418
     32 C24         2.2983    6.5100   -1.8231 C.ar      1 <0>         0.0262
     33 C25         2.1335    4.4574   -3.2474 C.3       1 <0>        -0.0792
     34 C26         2.9179    4.0107   -4.4854 C.3       1 <0>        -0.1441
     35 C27         4.3279    3.6592   -4.0941 C.2       1 <0>         0.5236
     36 O4          4.8968    2.7480   -4.6572 O.2       1 <0>        -0.5188
     37 N4          4.9668    4.3478   -3.1306 N.am      1 <0>        -0.6781
     38 H2          2.0805    2.3188   -0.0772 H         1 <0>         0.1179
     39 H3          4.1635    2.7959    1.1462 H         1 <0>         0.1190
     40 H4          4.3211    4.7940    2.5766 H         1 <0>         0.1207
     41 H5          0.3096    5.8329    1.5674 H         1 <0>         0.1219
     42 H6          0.1552    3.8398    0.1297 H         1 <0>         0.1226
     43 H7          1.4397    6.8712    3.4778 H         1 <0>         0.0953
     44 H8          3.1577    6.4832    3.8306 H         1 <0>         0.0958
     45 H9          5.1034    7.3834    4.8149 H         1 <0>         0.0828
     46 H10         4.9549    7.2941    3.0270 H         1 <0>         0.0850
     47 H11         7.3280    7.7745    3.8158 H         1 <0>         0.0948
     48 H12         6.6580    9.0547    2.7487 H         1 <0>         0.0457
     49 H13         6.0528   11.4313    5.4430 H         1 <0>         0.0886
     50 H14         5.9358   11.1378    3.6748 H         1 <0>         0.0443
     51 H15         3.6836   10.9624    4.6469 H         1 <0>         0.0984
     52 H16         4.2669    9.7930    5.8794 H         1 <0>         0.0771
     53 H17         8.2334   10.7336    5.6516 H         1 <0>         0.0876
     54 H18         7.8042   10.3665    2.6790 H         1 <0>         0.0695
     55 H19         8.3738   11.8219    3.5644 H         1 <0>         0.0648
     56 H20        10.1618   10.4295    2.0905 H         1 <0>         0.0645
     57 H21        10.6368   10.9963    3.7275 H         1 <0>         0.0683
     58 H22         9.6215    8.2020    2.8769 H         1 <0>         0.0640
     59 H23        11.0603    8.5935    3.8784 H         1 <0>         0.0675
     60 H24         9.7516    8.9822    5.8308 H         1 <0>         0.0707
     61 H25         8.5645    7.9212    4.9992 H         1 <0>         0.0778
     62 H26         0.7716    7.9159    1.4300 H         1 <0>         0.4455
     63 H27         4.9929    8.0936   -0.5496 H         1 <0>         0.1410
     64 H28         6.1393    6.2642   -1.7314 H         1 <0>         0.1377
     65 H29         1.2210    6.5821   -1.8474 H         1 <0>         0.1429
     66 H30         1.9423    3.5884   -2.6007 H         1 <0>         0.0875
     67 H31         1.1760    4.8999   -3.5595 H         1 <0>         0.0970
     68 H32         2.4323    3.1288   -4.9287 H         1 <0>         0.1144
     69 H33         2.9371    4.8276   -5.2218 H         1 <0>         0.1071
     70 H34         6.0040    4.0862   -2.8739 H         1 <0>         0.4392
@<TRIPOS>BOND
     1    1    6 ar
     2    1    2 ar
     3    1   38 1
     4    2    3 ar
     5    2   39 1
     6    3    4 ar
     7    3   40 1
     8    4    5 ar
     9    4    7 1
    10    5    6 ar
    11    5   41 1
    12    6   42 1
    13    7    8 1
    14    7   43 1
    15    7   44 1
    16    8    9 1
    17    8   10 1
    18    8   23 1
    19   10   11 2
    20   10   12 am
    21   12   17 1
    22   12   13 1
    23   13   14 1
    24   13   45 1
    25   13   46 1
    26   14   15 1
    27   14   47 1
    28   14   48 1
    29   15   16 1
    30   15   18 1
    31   16   17 1
    32   16   49 1
    33   16   50 1
    34   17   51 1
    35   17   52 1
    36   18   22 1
    37   18   19 1
    38   18   53 1
    39   19   20 1
    40   19   54 1
    41   19   55 1
    42   20   21 1
    43   20   56 1
    44   20   57 1
    45   21   22 1
    46   21   58 1
    47   21   59 1
    48   22   60 1
    49   22   61 1
    50   23   24 1
    51   23   62 1
    52   24   25 2
    53   24   26 2
    54   24   27 1
    55   27   32 ar
    56   27   28 ar
    57   28   29 ar
    58   28   63 1
    59   29   30 ar
    60   29   64 1
    61   30   37 1
    62   30   31 ar
    63   31   32 ar
    64   31   33 1
    65   32   65 1
    66   33   34 1
    67   33   66 1
    68   33   67 1
    69   34   35 1
    70   34   68 1
    71   34   69 1
    72   35   36 2
    73   35   37 am
    74   37   70 1
@<TRIPOS>MOLECULE
ZINC39201165
   67    70     0     0     0
SMALL
USER_CHARGES

@<TRIPOS>ATOM
      1 C1         -2.6359   -2.1166    1.6988 C.3       1 <0>        -0.1521
      2 C2         -2.2292   -3.4489    2.3316 C.3       1 <0>         0.0560
      3 O1         -1.0140   -3.2774    3.0635 O.3       1 <0>        -0.3649
      4 C3         -0.5441   -4.4687    3.6975 C.3       1 <0>         0.0478
      5 C4          0.7357   -4.1734    4.4363 C.2       1 <0>         0.5216
      6 O2          1.1997   -3.0530    4.4215 O.2       1 <0>        -0.5118
      7 N1          1.3646   -5.1543    5.1136 N.am      1 <0>        -0.7086
      8 C5          2.6087   -4.8672    5.8319 C.3       1 <0>         0.1175
      9 H1          2.5646   -3.8583    6.2420 H         1 <0>         0.1150
     10 C6          2.7788   -5.8713    6.9728 C.3       1 <0>         0.1470
     11 N2          4.1627   -5.8522    7.4499 N.pl3     1 <0>        -0.6583
     12 C7          4.8051   -4.6182    7.6075 C.ar      1 <0>         0.1647
     13 C8          5.0639   -4.1126    8.8709 C.ar      1 <0>        -0.1106
     14 C9          5.6792   -2.8814    9.0065 C.ar      1 <0>        -0.1129
     15 C10         6.0350   -2.1529    7.8863 C.ar      1 <0>        -0.1067
     16 C11         5.7871   -2.6544    6.6213 C.ar      1 <0>        -0.1228
     17 C12         5.1821   -3.8914    6.4772 C.ar      1 <0>         0.1191
     18 N3          4.9720   -4.4446    5.2079 N.am      1 <0>        -0.5377
     19 C13         3.7702   -4.9685    4.8788 C.2       1 <0>         0.5327
     20 O3          3.6251   -5.5205    3.8086 O.2       1 <0>        -0.5146
     21 C14         6.0633   -4.4582    4.2306 C.3       1 <0>         0.0987
     22 C15         6.8084   -5.7645    4.3278 C.2       1 <0>         0.5013
     23 O4          6.3852   -6.6527    5.0371 O.2       1 <0>        -0.4903
     24 N4          7.9449   -5.9458    3.6265 N.am      1 <0>        -0.6717
     25 C16         8.6822   -7.1263    3.7810 C.ar      1 <0>         0.1779
     26 C17         8.0309   -8.3385    4.0034 C.ar      1 <0>        -0.1081
     27 C18         8.7226   -9.4996    4.1574 C.ar      1 <0>        -0.0379
     28 C19        10.1321   -9.5110    4.0959 C.ar      1 <0>         0.0614
     29 C20        10.7704   -8.2705    3.8690 C.ar      1 <0>        -0.1458
     30 C21        10.0683   -7.1012    3.7083 C.ar      1 <0>        -0.0948
     31 S1         12.4829   -8.7326    3.8658 S.3       1 <0>         0.0863
     32 C22        12.2827  -10.3814    4.1382 C.2       1 <0>         0.0739
     33 N5         10.9947  -10.5415    4.2217 N.2       1 <0>        -0.5056
     34 C23         4.8630   -7.1019    7.7566 C.3       1 <0>         0.1657
     35 C24         4.6004   -7.4895    9.2132 C.3       1 <0>        -0.1199
     36 C25         3.0937   -7.6271    9.4406 C.3       1 <0>        -0.1450
     37 C26         5.2860   -8.8230    9.5176 C.3       1 <0>        -0.1457
     38 H2         -1.8494   -1.7800    1.0234 H         1 <0>         0.0646
     39 H3         -3.5629   -2.2475    1.1405 H         1 <0>         0.0738
     40 H4         -2.7853   -1.3731    2.4818 H         1 <0>         0.0648
     41 H5         -3.0158   -3.7855    3.0070 H         1 <0>         0.0518
     42 H6         -2.0799   -4.1924    1.5486 H         1 <0>         0.0516
     43 H7         -1.2957   -4.8265    4.4012 H         1 <0>         0.0828
     44 H8         -0.3598   -5.2334    2.9429 H         1 <0>         0.0836
     45 H9          0.9934   -6.0505    5.1255 H         1 <0>         0.4075
     46 H10         2.1098   -5.6061    7.7915 H         1 <0>         0.0726
     47 H11         2.5328   -6.8711    6.6151 H         1 <0>         0.0838
     48 H12         4.7856   -4.6782    9.7478 H         1 <0>         0.1300
     49 H13         5.8822   -2.4872    9.9913 H         1 <0>         0.1275
     50 H14         6.5079   -1.1885    7.9996 H         1 <0>         0.1295
     51 H15         6.0647   -2.0825    5.7482 H         1 <0>         0.1282
     52 H16         5.6534   -4.3474    3.2267 H         1 <0>         0.1210
     53 H17         6.7463   -3.6341    4.4372 H         1 <0>         0.1154
     54 H18         8.2522   -5.2586    3.0148 H         1 <0>         0.4144
     55 H19         6.9522   -8.3562    4.0551 H         1 <0>         0.1499
     56 H20         8.1875  -10.4219    4.3288 H         1 <0>         0.1370
     57 H21        10.5890   -6.1716    3.5322 H         1 <0>         0.1383
     58 H22        13.0505  -11.1361    4.2240 H         1 <0>         0.2234
     59 H23         4.5005   -7.8923    7.0992 H         1 <0>         0.0661
     60 H24         5.9336   -6.9653    7.6043 H         1 <0>         0.0705
     61 H25         4.9984   -6.7177    9.8719 H         1 <0>         0.0689
     62 H26         2.6873   -8.3633    8.7471 H         1 <0>         0.0504
     63 H27         2.9090   -7.9518   10.4646 H         1 <0>         0.0504
     64 H28         2.6114   -6.6642    9.2722 H         1 <0>         0.0583
     65 H29         6.3594   -8.7250    9.3555 H         1 <0>         0.0534
     66 H30         5.0990   -9.0992   10.5553 H         1 <0>         0.0553
     67 H31         4.8881   -9.5949    8.8588 H         1 <0>         0.0542
@<TRIPOS>BOND
     1    1    2 1
     2    1   38 1
     3    1   39 1
     4    1   40 1
     5    2    3 1
     6    2   41 1
     7    2   42 1
     8    3    4 1
     9    4    5 1
    10    4   43 1
    11    4   44 1
    12    5    6 2
    13    5    7 am
    14    7    8 1
    15    7   45 1
    16    8    9 1
    17    8   19 1
    18    8   10 1
    19   10   11 1
    20   10   46 1
    21   10   47 1
    22   11   12 1
    23   11   34 1
    24   12   17 ar
    25   12   13 ar
    26   13   14 ar
    27   13   48 1
    28   14   15 ar
    29   14   49 1
    30   15   16 ar
    31   15   50 1
    32   16   17 ar
    33   16   51 1
    34   17   18 1
    35   18   19 am
    36   18   21 1
    37   19   20 2
    38   21   22 1
    39   21   52 1
    40   21   53 1
    41   22   23 2
    42   22   24 am
    43   24   25 1
    44   24   54 1
    45   25   30 ar
    46   25   26 ar
    47   26   27 ar
    48   26   55 1
    49   27   28 ar
    50   27   56 1
    51   28   33 1
    52   28   29 ar
    53   29   30 ar
    54   29   31 1
    55   30   57 1
    56   31   32 1
    57   32   33 2
    58   32   58 1
    59   34   35 1
    60   34   59 1
    61   34   60 1
    62   35   36 1
    63   35   37 1
    64   35   61 1
    65   36   62 1
    66   36   63 1
    67   36   64 1
    68   37   65 1
    69   37   66 1
    70   37   67 1
@<TRIPOS>MOLECULE
ZINC16249129
   62    65     0     0     0
SMALL
USER_CHARGES

@<TRIPOS>ATOM
      1 C1         -0.1916    1.1542   -0.8766 C.3       1 <0>        -0.1091
      2 C2         -0.0660   -0.1296   -0.0973 C.2       1 <0>         0.1664
      3 C3         -1.0679   -0.7638    0.5478 C.2       1 <0>        -0.0604
      4 C4         -0.5323   -1.9302    1.1522 C.2       1 <0>         0.5288
      5 O1         -1.1500   -2.7436    1.8157 O.2       1 <0>        -0.4847
      6 N1          0.7832   -1.9770    0.8598 N.am      1 <0>        -0.3567
      7 N2          1.0866   -0.8579    0.0733 N.pl3     1 <0>        -0.3935
      8 C5          2.4046   -0.5213   -0.4707 C.3       1 <0>         0.1025
      9 C6          1.6827   -2.9679    1.2650 C.ar      1 <0>         0.1470
     10 C7          2.9008   -2.6131    1.8304 C.ar      1 <0>        -0.1267
     11 C8          3.7870   -3.5942    2.2295 C.ar      1 <0>        -0.1048
     12 C9          3.4628   -4.9286    2.0668 C.ar      1 <0>        -0.1156
     13 C10         2.2511   -5.2853    1.5038 C.ar      1 <0>        -0.0993
     14 C11         1.3578   -4.3091    1.1082 C.ar      1 <0>        -0.0993
     15 N3         -2.4123   -0.3404    0.6106 N.pl3     1 <0>        -0.8844
     16 C12        -2.8095    0.9301   -0.0012 C.3       1 <0>         0.0913
     17 C13        -3.0467    0.7254   -1.4753 C.2       1 <0>         0.5090
     18 O2         -2.8986   -0.3739   -1.9666 O.2       1 <0>        -0.4729
     19 N4         -3.4235    1.7635   -2.2478 N.am      1 <0>        -0.5883
     20 N5         -3.6440    1.5732   -3.6182 N.2       1 <0>        -0.2012
     21 C14        -4.0068    2.5730   -4.3622 C.2       1 <0>         0.1022
     22 C15        -4.2388    2.3727   -5.8037 C.ar      1 <0>        -0.0879
     23 C16        -4.6238    3.4471   -6.6090 C.ar      1 <0>        -0.0748
     24 C17        -4.8388    3.2531   -7.9572 C.ar      1 <0>        -0.1355
     25 C18        -4.6747    1.9973   -8.5167 C.ar      1 <0>        -0.0860
     26 C19        -4.2946    0.9260   -7.7305 C.ar      1 <0>        -0.1540
     27 C20        -4.0688    1.1044   -6.3754 C.ar      1 <0>         0.1477
     28 O3         -3.6899    0.0536   -5.6031 O.3       1 <0>        -0.4742
     29 S1         -3.5413   -1.2796    1.3758 S.o2      1 <0>         2.6818
     30 O4         -4.8144   -0.7933    0.9733 O.2       1 <0>        -0.9567
     31 O5         -3.1454   -2.6303    1.1811 O.2       1 <0>        -0.8979
     32 C21        -3.4024   -0.9581    3.1027 C.ar      1 <0>        -0.6735
     33 C22        -2.5415   -1.7112    3.8789 C.ar      1 <0>        -0.0164
     34 C23        -2.4325   -1.4590    5.2336 C.ar      1 <0>        -0.1463
     35 C24        -3.1841   -0.4533    5.8121 C.ar      1 <0>        -0.0639
     36 C25        -4.0444    0.3004    5.0357 C.ar      1 <0>        -0.1468
     37 C26        -4.1502    0.0510    3.6802 C.ar      1 <0>        -0.0272
     38 H1          0.7544    1.3722   -1.3723 H         1 <0>         0.0833
     39 H2         -0.9780    1.0500   -1.6241 H         1 <0>         0.0919
     40 H3         -0.4419    1.9688   -0.1970 H         1 <0>         0.0955
     41 H4          2.9175    0.1558    0.2125 H         1 <0>         0.0737
     42 H5          2.9921   -1.4317   -0.5891 H         1 <0>         0.0883
     43 H6          2.2848   -0.0374   -1.4400 H         1 <0>         0.0951
     44 H7          3.1547   -1.5710    1.9575 H         1 <0>         0.1259
     45 H8          4.7344   -3.3190    2.6689 H         1 <0>         0.1313
     46 H9          4.1576   -5.6940    2.3797 H         1 <0>         0.1298
     47 H10         2.0013   -6.3284    1.3774 H         1 <0>         0.1341
     48 H11         0.4095   -4.5884    0.6733 H         1 <0>         0.1364
     49 H12        -3.7258    1.2885    0.4679 H         1 <0>         0.1282
     50 H13        -2.0172    1.6651    0.1406 H         1 <0>         0.1259
     51 H14        -3.5419    2.6425   -1.8550 H         1 <0>         0.3849
     52 H15        -4.1387    3.5516   -3.9248 H         1 <0>         0.1216
     53 H16        -4.7531    4.4282   -6.1764 H         1 <0>         0.1320
     54 H17        -5.1367    4.0841   -8.5793 H         1 <0>         0.1301
     55 H18        -4.8452    1.8539   -9.5735 H         1 <0>         0.1291
     56 H19        -4.1690   -0.0506   -8.1741 H         1 <0>         0.1324
     57 H20        -4.4282   -0.4375   -5.2173 H         1 <0>         0.3943
     58 H21        -1.9543   -2.4969    3.4269 H         1 <0>         0.1705
     59 H22        -1.7605   -2.0479    5.8402 H         1 <0>         0.1303
     60 H23        -3.0995   -0.2567    6.8707 H         1 <0>         0.1291
     61 H24        -4.6318    1.0859    5.4877 H         1 <0>         0.1315
     62 H25        -4.8195    0.6424    3.0729 H         1 <0>         0.1358
@<TRIPOS>BOND
     1    1    2 1
     2    1   38 1
     3    1   39 1
     4    1   40 1
     5    2    7 1
     6    2    3 2
     7    3    4 1
     8    3   15 1
     9    4    5 2
    10    4    6 am
    11    6    7 1
    12    6    9 1
    13    7    8 1
    14    8   41 1
    15    8   42 1
    16    8   43 1
    17    9   14 ar
    18    9   10 ar
    19   10   11 ar
    20   10   44 1
    21   11   12 ar
    22   11   45 1
    23   12   13 ar
    24   12   46 1
    25   13   14 ar
    26   13   47 1
    27   14   48 1
    28   15   16 1
    29   15   29 1
    30   16   17 1
    31   16   49 1
    32   16   50 1
    33   17   18 2
    34   17   19 am
    35   19   20 1
    36   19   51 1
    37   20   21 2
    38   21   22 1
    39   21   52 1
    40   22   27 ar
    41   22   23 ar
    42   23   24 ar
    43   23   53 1
    44   24   25 ar
    45   24   54 1
    46   25   26 ar
    47   25   55 1
    48   26   27 ar
    49   26   56 1
    50   27   28 1
    51   28   57 1
    52   29   30 2
    53   29   31 2
    54   29   32 1
    55   32   37 ar
    56   32   33 ar
    57   33   34 ar
    58   33   58 1
    59   34   35 ar
    60   34   59 1
    61   35   36 ar
    62   35   60 1
    63   36   37 ar
    64   36   61 1
    65   37   62 1
@<TRIPOS>MOLECULE
ZINC08908714
   52    55     0     0     0
SMALL
USER_CHARGES
1-(4-fluorophenyl)-N-[5-[(4-nitrophenyl)carbamoylmethylsulfanyl]-1,3,4-thiadiazol-2-yl]-5-oxo-pyrrolidine-3-carboxamide
@<TRIPOS>ATOM
      1 C1         -0.9953   -8.2179  -10.3384 C.ar      1 <0>        -0.1417
      2 C2         -1.2266   -9.0057  -11.4490 C.ar      1 <0>        -0.0322
      3 C3         -1.3455   -8.4246  -12.6981 C.ar      1 <0>        -0.0595
      4 C4         -1.2386   -7.0531  -12.8390 C.ar      1 <0>        -0.0319
      5 C5         -1.0127   -6.2593  -11.7316 C.ar      1 <0>        -0.1223
      6 C6         -0.8928   -6.8398  -10.4758 C.ar      1 <0>         0.1976
      7 N1         -0.6634   -6.0383   -9.3519 N.am      1 <0>        -0.6658
      8 C7         -1.2194   -4.8131   -9.2732 C.2       1 <0>         0.5411
      9 O1         -1.8490   -4.3714  -10.2110 O.2       1 <0>        -0.4932
     10 C8         -1.0587   -3.9919   -8.0198 C.3       1 <0>        -0.1641
     11 S1         -1.9142   -2.4052   -8.2227 S.3       1 <0>         0.1437
     12 C9         -1.6369   -1.5730   -6.6946 C.2       1 <0>        -0.0074
     13 N2         -0.9693   -1.9658   -5.6195 N.2       1 <0>        -0.2589
     14 N3         -0.8656   -1.2366   -4.5957 N.2       1 <0>        -0.2686
     15 C10        -1.4162   -0.0354   -4.5315 C.2       1 <0>         0.2785
     16 S2         -2.1817    0.0428   -6.1483 S.3       1 <0>         0.0670
     17 N4         -1.4079    0.8991   -3.4989 N.am      1 <0>        -0.6082
     18 C11        -0.7636    0.6252   -2.3472 C.2       1 <0>         0.5248
     19 O2         -0.1909   -0.4352   -2.2101 O.2       1 <0>        -0.4544
     20 C12        -0.7547    1.6363   -1.2299 C.3       1 <0>        -0.1166
     21 H1         -0.3558    2.5910   -1.5729 H         1 <0>         0.1356
     22 C13        -2.1693    1.8110   -0.6303 C.3       1 <0>        -0.1458
     23 C14        -1.9239    1.9984    0.8507 C.2       1 <0>         0.5216
     24 O3         -2.7332    2.4408    1.6384 O.2       1 <0>        -0.4965
     25 N5         -0.6766    1.6033    1.1678 N.am      1 <0>        -0.5572
     26 C15         0.0399    1.1099   -0.0142 C.3       1 <0>         0.1088
     27 C16        -0.1323    1.6560    2.4569 C.ar      1 <0>         0.1536
     28 C17         1.1662    1.2184    2.6816 C.ar      1 <0>        -0.1272
     29 C18         1.7032    1.2766    3.9527 C.ar      1 <0>        -0.1238
     30 C19         0.9437    1.7603    5.0048 C.ar      1 <0>         0.0761
     31 C20        -0.3534    2.1919    4.7838 C.ar      1 <0>        -0.1227
     32 C21        -0.8922    2.1407    3.5131 C.ar      1 <0>        -0.1272
     33 F1          1.4691    1.8116    6.2484 F         1 <0>        -0.1385
     34 N6         -1.5881   -9.2724  -13.8870 N.pl3     1 <0>         0.0288
     35 O4         -1.6935   -8.7619  -14.9878 O.2       1 <0>        -0.1580
     36 O5         -1.6824  -10.4806  -13.7644 O.3       1 <0>        -0.1595
     37 H2         -0.8981   -8.6727   -9.3637 H         1 <0>         0.1532
     38 H3         -1.3108  -10.0771  -11.3422 H         1 <0>         0.1601
     39 H4         -1.3316   -6.6023  -13.8160 H         1 <0>         0.1595
     40 H5         -0.9297   -5.1882  -11.8422 H         1 <0>         0.1636
     41 H6         -0.1042   -6.3645   -8.6296 H         1 <0>         0.4236
     42 H7          0.0006   -3.8127   -7.8361 H         1 <0>         0.1375
     43 H8         -1.4879   -4.5307   -7.1750 H         1 <0>         0.1373
     44 H9         -1.8659    1.7471   -3.6085 H         1 <0>         0.4327
     45 H10        -2.6558    2.6910   -1.0507 H         1 <0>         0.1247
     46 H11        -2.7714    0.9198   -0.8074 H         1 <0>         0.1184
     47 H12         0.0564    0.0200   -0.0176 H         1 <0>         0.1060
     48 H13         1.0568    1.5021   -0.0297 H         1 <0>         0.1013
     49 H14         1.7573    0.8369    1.8622 H         1 <0>         0.1376
     50 H15         2.7145    0.9401    4.1272 H         1 <0>         0.1420
     51 H16        -0.9442    2.5684    5.6057 H         1 <0>         0.1418
     52 H17        -1.9039    2.4770    3.3412 H         1 <0>         0.1650
@<TRIPOS>BOND
     1    1    6 ar
     2    1    2 ar
     3    1   37 1
     4    2    3 ar
     5    2   38 1
     6    3    4 ar
     7    3   34 1
     8    4    5 ar
     9    4   39 1
    10    5    6 ar
    11    5   40 1
    12    6    7 1
    13    7    8 am
    14    7   41 1
    15    8    9 2
    16    8   10 1
    17   10   11 1
    18   10   42 1
    19   10   43 1
    20   11   12 1
    21   12   16 1
    22   12   13 2
    23   13   14 1
    24   14   15 2
    25   15   16 1
    26   15   17 1
    27   17   18 am
    28   17   44 1
    29   18   19 2
    30   18   20 1
    31   20   21 1
    32   20   26 1
    33   20   22 1
    34   22   23 1
    35   22   45 1
    36   22   46 1
    37   23   24 2
    38   23   25 am
    39   25   26 1
    40   25   27 1
    41   26   47 1
    42   26   48 1
    43   27   32 ar
    44   27   28 ar
    45   28   29 ar
    46   28   49 1
    47   29   30 ar
    48   29   50 1
    49   30   31 ar
    50   30   33 1
    51   31   32 ar
    52   31   51 1
    53   32   52 1
    54   34   35 2
    55   34   36 1
@<TRIPOS>MOLECULE
ZINC00883648
   55    59     0     0     0
SMALL
USER_CHARGES
2-[3-[(E)-[1-(4-chlorophenyl)-4,6-dioxo-2-thioxo-hexahydropyrimidin-5-ylidene]methyl]indol-1-yl]-N-(2-furylmethyl)acetamide
@<TRIPOS>ATOM
      1 C1         -7.1063   -1.7725   -6.3594 C.ar      1 <0>        -0.1229
      2 C2         -6.4578   -0.7869   -5.6302 C.ar      1 <0>        -0.1033
      3 C3         -5.6838   -1.1158   -4.5385 C.ar      1 <0>        -0.1100
      4 C4         -5.5485   -2.4474   -4.1587 C.ar      1 <0>         0.0894
      5 C5         -6.2060   -3.4424   -4.8979 C.ar      1 <0>        -0.0520
      6 C6         -6.9842   -3.0972   -5.9984 C.ar      1 <0>        -0.0853
      7 C7         -5.8629   -4.7225   -4.2456 C.2       1 <0>        -0.2453
      8 C8         -5.0341   -4.4022   -3.1843 C.2       1 <0>         0.2111
      9 N1         -4.8589   -3.0692   -3.1366 N.pl3     1 <0>        -0.4391
     10 C9         -4.0424   -2.3724   -2.1395 C.3       1 <0>         0.0824
     11 C10        -4.9222   -1.9002   -1.0109 C.2       1 <0>         0.4950
     12 O1         -6.1140   -2.1236   -1.0368 O.2       1 <0>        -0.5117
     13 N2         -4.3848   -1.2295    0.0273 N.am      1 <0>        -0.7240
     14 C11        -5.2401   -0.7705    1.1245 C.3       1 <0>         0.2056
     15 C12        -4.4002   -0.0537    2.1501 C.2       1 <0>        -0.0480
     16 C13        -4.1272    1.2633    2.1620 C.2       1 <0>        -0.1768
     17 C14        -3.3116    1.5024    3.2919 C.2       1 <0>        -0.2183
     18 C15        -3.1350    0.3172    3.9029 C.2       1 <0>        -0.0223
     19 O2         -3.7967   -0.6218    3.2069 O.3       1 <0>        -0.1716
     20 C16        -6.2898   -6.0105   -4.6291 C.2       1 <0>         0.2117
     21 C17        -5.3752   -7.0524   -4.6997 C.2       1 <0>        -0.3364
     22 C18        -3.9263   -6.8136   -4.5753 C.2       1 <0>         0.5624
     23 O3         -3.4905   -5.6901   -4.4059 O.2       1 <0>        -0.4729
     24 N3         -3.0965   -7.8746   -4.6494 N.am      1 <0>        -0.6166
     25 C19        -3.5629   -9.1165   -4.8411 C.2       1 <0>         0.5361
     26 S1         -2.4351  -10.4015   -4.9288 S.2       1 <0>        -0.4954
     27 N4         -4.8657   -9.4057   -4.9673 N.am      1 <0>        -0.4745
     28 C20        -5.8102   -8.4444   -4.9085 C.2       1 <0>         0.5617
     29 O4         -6.9899   -8.7196   -5.0245 O.2       1 <0>        -0.4602
     30 C21        -5.2554  -10.7372   -5.1652 C.ar      1 <0>         0.1233
     31 C22        -5.4524  -11.2201   -6.4520 C.ar      1 <0>        -0.0693
     32 C23        -5.8313  -12.5342   -6.6446 C.ar      1 <0>        -0.0980
     33 C24        -6.0252  -13.3663   -5.5560 C.ar      1 <0>        -0.0147
     34 C25        -5.8346  -12.8859   -4.2723 C.ar      1 <0>        -0.0981
     35 C26        -5.4506  -11.5740   -4.0746 C.ar      1 <0>        -0.0663
     36 Cl1        -6.5090  -15.0154   -5.8012 Cl        1 <0>        -0.0579
     37 H1         -7.7095   -1.5010   -7.2131 H         1 <0>         0.1290
     38 H2         -6.5604    0.2482   -5.9208 H         1 <0>         0.1298
     39 H3         -5.1832   -0.3404   -3.9777 H         1 <0>         0.1191
     40 H4         -7.4898   -3.8634   -6.5673 H         1 <0>         0.1269
     41 H5         -4.5969   -5.1130   -2.4986 H         1 <0>         0.1757
     42 H6         -3.5553   -1.5149   -2.6038 H         1 <0>         0.1276
     43 H7         -3.2855   -3.0531   -1.7498 H         1 <0>         0.1302
     44 H8         -3.4316   -1.0508    0.0480 H         1 <0>         0.4070
     45 H9         -5.7272   -1.6280    1.5887 H         1 <0>         0.0887
     46 H10        -5.9970   -0.0898    0.7348 H         1 <0>         0.1028
     47 H11        -4.4628    1.9967    1.4437 H         1 <0>         0.1519
     48 H12        -2.9079    2.4541    3.6044 H         1 <0>         0.1531
     49 H13        -2.5594    0.1492    4.8011 H         1 <0>         0.2075
     50 H14        -7.3282   -6.1865   -4.8678 H         1 <0>         0.1567
     51 H15        -2.1403   -7.7350   -4.5661 H         1 <0>         0.4457
     52 H16        -5.3058  -10.5698   -7.3016 H         1 <0>         0.1356
     53 H17        -5.9803  -12.9115   -7.6455 H         1 <0>         0.1449
     54 H18        -5.9866  -13.5372   -3.4243 H         1 <0>         0.1448
     55 H19        -5.3026  -11.1994   -3.0725 H         1 <0>         0.1354
@<TRIPOS>BOND
     1    1    6 ar
     2    1    2 ar
     3    1   37 1
     4    2    3 ar
     5    2   38 1
     6    3    4 ar
     7    3   39 1
     8    4    9 1
     9    4    5 ar
    10    5    6 ar
    11    5    7 1
    12    6   40 1
    13    7    8 2
    14    7   20 1
    15    8    9 1
    16    8   41 1
    17    9   10 1
    18   10   11 1
    19   10   42 1
    20   10   43 1
    21   11   12 2
    22   11   13 am
    23   13   14 1
    24   13   44 1
    25   14   15 1
    26   14   45 1
    27   14   46 1
    28   15   19 1
    29   15   16 2
    30   16   17 1
    31   16   47 1
    32   17   18 2
    33   17   48 1
    34   18   19 1
    35   18   49 1
    36   20   21 2
    37   20   50 1
    38   21   28 1
    39   21   22 1
    40   22   23 2
    41   22   24 am
    42   24   25 1
    43   24   51 1
    44   25   26 2
    45   25   27 1
    46   27   28 am
    47   27   30 1
    48   28   29 2
    49   30   35 ar
    50   30   31 ar
    51   31   32 ar
    52   31   52 1
    53   32   33 ar
    54   32   53 1
    55   33   34 ar
    56   33   36 1
    57   34   35 ar
    58   34   54 1
    59   35   55 1
@<TRIPOS>MOLECULE
ZINC35851860
   62    68     0     0     0
SMALL
USER_CHARGES

@<TRIPOS>ATOM
      1 C1          0.9106    1.7173    1.0924 C.3       1 <0>        -0.1167
      2 C2          0.7700    0.2419    0.8195 C.ar      1 <0>        -0.1065
      3 C3          0.8727   -0.2315   -0.4724 C.ar      1 <0>        -0.0737
      4 C4          0.7460   -1.5833   -0.7332 C.ar      1 <0>        -0.1380
      5 C5          0.5144   -2.4663    0.3072 C.ar      1 <0>        -0.0680
      6 C6          0.4107   -1.9981    1.5975 C.ar      1 <0>        -0.1494
      7 C7          0.5424   -0.6404    1.8726 C.ar      1 <0>         0.1674
      8 N1          0.4067   -0.4098    3.2429 N.am      1 <0>        -0.6662
      9 C8          0.1942   -1.5469    3.9307 C.2       1 <0>         0.5355
     10 O1          0.0409   -1.6488    5.1295 O.2       1 <0>        -0.4226
     11 C9          0.1708   -2.6680    2.9233 C.3       1 <0>         0.1231
     12 C10        -1.1740   -3.4037    2.9364 C.3       1 <0>        -0.1063
     13 H1         -1.5025   -3.6101    1.9178 H         1 <0>         0.1189
     14 C11        -0.9043   -4.7140    3.6845 C.3       1 <0>        -0.0589
     15 C12        -1.2510   -5.9097    2.8420 C.ar      1 <0>        -0.1313
     16 C13        -0.8072   -6.3703    1.6226 C.ar      1 <0>        -0.0696
     17 C14        -1.3300   -7.5355    1.0903 C.ar      1 <0>        -0.1371
     18 C15        -2.2990   -8.2357    1.7858 C.ar      1 <0>        -0.0758
     19 C16        -2.7462   -7.7783    3.0077 C.ar      1 <0>        -0.1364
     20 C17        -2.2254   -6.6060    3.5506 C.ar      1 <0>         0.1509
     21 N2         -2.5113   -5.9511    4.7503 N.am      1 <0>        -0.6644
     22 C18        -1.7786   -4.8323    4.9052 C.2       1 <0>         0.5199
     23 O2         -1.8154   -4.0675    5.8458 O.2       1 <0>        -0.4374
     24 C19         0.5792   -4.7057    4.0640 C.3       1 <0>         0.0861
     25 H2          0.7164   -4.5004    5.1257 H         1 <0>         0.1155
     26 N3          1.2127   -3.6565    3.2214 N.3       1 <0>        -0.4552
     27 C20         1.6521   -4.3463    1.9844 C.3       1 <0>         0.0187
     28 C21         2.1959   -5.6992    2.5088 C.3       1 <0>        -0.1212
     29 C22         1.2114   -6.0534    3.6667 C.3       1 <0>        -0.1437
     30 C23        -2.2104   -2.5869    3.6642 C.2       1 <0>         0.3536
     31 O3         -1.9701   -2.1471    4.7683 O.2       1 <0>        -0.3442
     32 C24        -3.5143   -2.3230    3.0348 C.ar      1 <0>        -0.1562
     33 C25        -3.7976   -2.8335    1.7637 C.ar      1 <0>        -0.0303
     34 C26        -5.0213   -2.5819    1.1809 C.ar      1 <0>        -0.1208
     35 C27        -5.9686   -1.8263    1.8502 C.ar      1 <0>        -0.0285
     36 C28        -5.6960   -1.3178    3.1080 C.ar      1 <0>        -0.0553
     37 C29        -4.4786   -1.5656    3.7069 C.ar      1 <0>        -0.0020
     38 N4         -6.7156   -0.5108    3.8148 N.pl3     1 <0>         0.0310
     39 O4         -7.7851   -0.2966    3.2932 O.2       1 <0>        -0.1489
     40 O5         -6.4791   -0.0658    4.9138 O.3       1 <0>        -0.1500
     41 H3          1.9582    1.9543    1.2778 H         1 <0>         0.0746
     42 H4          0.5577    2.2818    0.2293 H         1 <0>         0.0744
     43 H5          0.3176    1.9831    1.9675 H         1 <0>         0.0612
     44 H6          1.0535    0.4575   -1.2841 H         1 <0>         0.1336
     45 H7          0.8271   -1.9492   -1.7461 H         1 <0>         0.1340
     46 H8          0.4147   -3.5228    0.1066 H         1 <0>         0.1309
     47 H9          0.4597    0.4682    3.6518 H         1 <0>         0.4153
     48 H10        -0.0503   -5.8219    1.0815 H         1 <0>         0.1329
     49 H11        -0.9826   -7.8972    0.1338 H         1 <0>         0.1345
     50 H12        -2.7071   -9.1451    1.3702 H         1 <0>         0.1347
     51 H13        -3.5029   -8.3307    3.5451 H         1 <0>         0.1293
     52 H14        -3.1624   -6.2656    5.3968 H         1 <0>         0.4163
     53 H15         0.8090   -4.5049    1.3120 H         1 <0>         0.0623
     54 H16         2.4407   -3.7809    1.4879 H         1 <0>         0.0952
     55 H17         2.1614   -6.4578    1.7268 H         1 <0>         0.0805
     56 H18         3.2098   -5.5848    2.8921 H         1 <0>         0.0803
     57 H19         1.7493   -6.4822    4.5122 H         1 <0>         0.0777
     58 H20         0.4428   -6.7431    3.3180 H         1 <0>         0.0955
     59 H21        -3.0594   -3.4228    1.2401 H         1 <0>         0.1481
     60 H22        -5.2414   -2.9750    0.1993 H         1 <0>         0.1580
     61 H23        -6.9253   -1.6324    1.3882 H         1 <0>         0.1614
     62 H24        -4.2690   -1.1718    4.6905 H         1 <0>         0.1634
@<TRIPOS>BOND
     1    1    2 1
     2    1   41 1
     3    1   42 1
     4    1   43 1
     5    2    7 ar
     6    2    3 ar
     7    3    4 ar
     8    3   44 1
     9    4    5 ar
    10    4   45 1
    11    5    6 ar
    12    5   46 1
    13    6   11 1
    14    6    7 ar
    15    7    8 1
    16    8    9 am
    17    8   47 1
    18    9   10 2
    19    9   11 1
    20   11   26 1
    21   11   12 1
    22   12   13 1
    23   12   14 1
    24   12   30 1
    25   14   22 1
    26   14   15 1
    27   14   24 1
    28   15   20 ar
    29   15   16 ar
    30   16   17 ar
    31   16   48 1
    32   17   18 ar
    33   17   49 1
    34   18   19 ar
    35   18   50 1
    36   19   20 ar
    37   19   51 1
    38   20   21 1
    39   21   22 am
    40   21   52 1
    41   22   23 2
    42   24   25 1
    43   24   29 1
    44   24   26 1
    45   26   27 1
    46   27   28 1
    47   27   53 1
    48   27   54 1
    49   28   29 1
    50   28   55 1
    51   28   56 1
    52   29   57 1
    53   29   58 1
    54   30   31 2
    55   30   32 1
    56   32   37 ar
    57   32   33 ar
    58   33   34 ar
    59   33   59 1
    60   34   35 ar
    61   34   60 1
    62   35   36 ar
    63   35   61 1
    64   36   37 ar
    65   36   38 1
    66   37   62 1
    67   38   39 2
    68   38   40 1
@<TRIPOS>MOLECULE
ZINC39836200
   59    62     0     0     0
SMALL
USER_CHARGES

@<TRIPOS>ATOM
      1 C1         -0.0187    1.5258    0.0104 C.3       1 <0>        -0.1487
      2 C2          0.0021   -0.0041    0.0020 C.3       1 <0>        -0.0855
      3 H1         -1.0199   -0.3831    0.0097 H         1 <0>         0.0756
      4 C3          0.7237   -0.5003   -1.2542 C.3       1 <0>        -0.1146
      5 C4          0.5369   -2.0123   -1.3991 C.3       1 <0>        -0.0590
      6 C5          0.9353   -2.6803   -0.0913 C.2       1 <0>        -0.0639
      7 C6          1.0194   -1.9773    1.0588 C.2       1 <0>        -0.2189
      8 S1          1.5080   -3.1644    2.2756 S.3       1 <0>         0.3004
      9 C7          1.5994   -4.5386    1.3148 C.2       1 <0>         0.0357
     10 C8          1.2542   -4.0903    0.0496 C.2       1 <0>        -0.2325
     11 C9          1.2123   -5.0013   -1.0985 C.2       1 <0>         0.5855
     12 O1          2.2079   -5.1705   -1.7778 O.2       1 <0>        -0.5226
     13 N1          0.0712   -5.6513   -1.4017 N.am      1 <0>        -0.7128
     14 C10         0.0293   -6.5616   -2.5488 C.3       1 <0>         0.1397
     15 H2          0.9922   -7.0606   -2.6581 H         1 <0>         0.1148
     16 C11        -0.2940   -5.7711   -3.8275 C.3       1 <0>        -0.1414
     17 C12        -0.6549   -6.7464   -4.9738 C.3       1 <0>        -0.5729
     18 S2         -1.3421   -8.1940   -4.0711 S.o2      1 <0>         2.3777
     19 O2         -0.5135   -9.3235   -4.3097 O.2       1 <0>        -0.9282
     20 O3         -2.7362   -8.2820   -4.3317 O.2       1 <0>        -0.9296
     21 C13        -1.0903   -7.6206   -2.3385 C.3       1 <0>        -0.5973
     22 N2          1.9424   -5.8261    1.6989 N.am      1 <0>        -0.6181
     23 C14         2.2530   -6.0856    2.9844 C.2       1 <0>         0.5078
     24 O4          2.2325   -5.1931    3.8053 O.2       1 <0>        -0.4543
     25 C15         2.6257   -7.4849    3.4019 C.3       1 <0>         0.0412
     26 O5          2.9096   -7.5045    4.8022 O.3       1 <0>        -0.2560
     27 C16         3.2648   -8.6996    5.3431 C.ar      1 <0>         0.1922
     28 C17         3.3441   -9.8291    4.5412 C.ar      1 <0>        -0.2158
     29 C18         3.7057  -11.0425    5.0932 C.ar      1 <0>        -0.0253
     30 C19         3.9887  -11.1322    6.4438 C.ar      1 <0>        -0.1516
     31 C20         3.9100  -10.0083    7.2450 C.ar      1 <0>        -0.0180
     32 C21         3.5542   -8.7911    6.6966 C.ar      1 <0>        -0.0799
     33 N3          3.4761   -7.5870    7.5537 N.pl3     1 <0>         0.0346
     34 O6          3.7285   -7.6673    8.7333 O.2       1 <0>        -0.1757
     35 O7          3.1599   -6.5232    7.0742 O.3       1 <0>        -0.1213
     36 C22         0.7496   -0.5152    1.2424 C.3       1 <0>        -0.0317
     37 H3          1.0039    1.9031    0.0027 H         1 <0>         0.0575
     38 H4         -0.5459    1.8868   -0.8726 H         1 <0>         0.0583
     39 H5         -0.5289    1.8773    0.9072 H         1 <0>         0.0584
     40 H6          0.3118    0.0009   -2.1301 H         1 <0>         0.0710
     41 H7          1.7867   -0.2727   -1.1748 H         1 <0>         0.0679
     42 H8         -0.5078   -2.2323   -1.6187 H         1 <0>         0.0766
     43 H9          1.1686   -2.3831   -2.2063 H         1 <0>         0.0750
     44 H10        -0.7223   -5.5165   -0.8603 H         1 <0>         0.4086
     45 H11        -1.1373   -5.1067   -3.6387 H         1 <0>         0.0918
     46 H12         0.5744   -5.1789   -4.1161 H         1 <0>         0.1035
     47 H13        -1.4060   -6.3089   -5.6315 H         1 <0>         0.1464
     48 H14         0.2354   -7.0285   -5.5359 H         1 <0>         0.1436
     49 H15        -0.7478   -8.4349   -1.6999 H         1 <0>         0.1476
     50 H16        -1.9955   -7.1632   -1.9390 H         1 <0>         0.1466
     51 H17         1.9587   -6.5400    1.0424 H         1 <0>         0.4189
     52 H18         1.7968   -8.1603    3.1897 H         1 <0>         0.1086
     53 H19         3.5075   -7.8066    2.8478 H         1 <0>         0.1093
     54 H20         3.1228   -9.7597    3.4864 H         1 <0>         0.1510
     55 H21         3.7672  -11.9221    4.4695 H         1 <0>         0.1486
     56 H22         4.2713  -12.0818    6.8736 H         1 <0>         0.1515
     57 H23         4.1311  -10.0809    8.2996 H         1 <0>         0.1622
     58 H24         1.6929    0.0204    1.3496 H         1 <0>         0.0843
     59 H25         0.1363   -0.3614    2.1303 H         1 <0>         0.0828
@<TRIPOS>BOND
     1    1    2 1
     2    1   37 1
     3    1   38 1
     4    1   39 1
     5    2    3 1
     6    2   36 1
     7    2    4 1
     8    4    5 1
     9    4   40 1
    10    4   41 1
    11    5    6 1
    12    5   42 1
    13    5   43 1
    14    6   10 1
    15    6    7 2
    16    7    8 1
    17    7   36 1
    18    8    9 1
    19    9   10 2
    20    9   22 1
    21   10   11 1
    22   11   12 2
    23   11   13 am
    24   13   14 1
    25   13   44 1
    26   14   15 1
    27   14   21 1
    28   14   16 1
    29   16   17 1
    30   16   45 1
    31   16   46 1
    32   17   18 1
    33   17   47 1
    34   17   48 1
    35   18   19 2
    36   18   20 2
    37   18   21 1
    38   21   49 1
    39   21   50 1
    40   22   23 am
    41   22   51 1
    42   23   24 2
    43   23   25 1
    44   25   26 1
    45   25   52 1
    46   25   53 1
    47   26   27 1
    48   27   32 ar
    49   27   28 ar
    50   28   29 ar
    51   28   54 1
    52   29   30 ar
    53   29   55 1
    54   30   31 ar
    55   30   56 1
    56   31   32 ar
    57   31   57 1
    58   32   33 1
    59   33   34 2
    60   33   35 1
    61   36   58 1
    62   36   59 1
@<TRIPOS>MOLECULE
ZINC14161404
   70    74     0     0     0
SMALL
USER_CHARGES

@<TRIPOS>ATOM
      1 C1         -0.5974    1.1423   -0.7975 C.3       1 <0>        -0.1143
      2 C2         -0.4639   -0.3518   -0.6533 C.ar      1 <0>        -0.1017
      3 C3         -1.0170   -0.9915    0.4408 C.ar      1 <0>        -0.1032
      4 C4         -0.8964   -2.3606    0.5760 C.ar      1 <0>        -0.1153
      5 C5         -0.2188   -3.0951   -0.3885 C.ar      1 <0>         0.1553
      6 C6          0.3356   -2.4496   -1.4862 C.ar      1 <0>        -0.1423
      7 C7          0.2066   -1.0809   -1.6182 C.ar      1 <0>        -0.1010
      8 N1         -0.0945   -4.4819   -0.2544 N.am      1 <0>        -0.6573
      9 C8          0.0523   -5.0303    0.9679 C.2       1 <0>         0.6749
     10 O1         -0.0051   -4.3279    1.9614 O.2       1 <0>        -0.5525
     11 N2          0.2615   -6.3489    1.0904 N.2       1 <0>        -0.6471
     12 C9          0.2955   -6.9045    2.2901 C.2       1 <0>         0.7468
     13 N3          0.3852   -8.2641    2.4120 N.pl3     1 <0>        -0.6008
     14 C10         0.3440   -8.8527    3.6690 C.ar      1 <0>         0.5497
     15 N4          0.1192   -8.0939    4.7308 N.ar      1 <0>        -0.5231
     16 C11         0.0732   -8.6226    5.9424 C.ar      1 <0>         0.2087
     17 C12         0.2638   -9.9874    6.0920 C.ar      1 <0>        -0.2558
     18 C13         0.4968  -10.7517    4.9593 C.ar      1 <0>         0.2157
     19 N5          0.5252  -10.1600    3.7766 N.ar      1 <0>        -0.5495
     20 C14         0.7101  -12.2391    5.0735 C.3       1 <0>        -0.1094
     21 C15        -0.1828   -7.7518    7.1454 C.3       1 <0>        -0.1093
     22 N6          0.2413   -6.1218    3.4059 N.pl3     1 <0>        -0.6529
     23 C16         1.4690   -5.5585    3.9849 C.3       1 <0>         0.1562
     24 C17         1.3097   -4.0365    4.0862 C.3       1 <0>         0.1108
     25 N7          0.0223   -3.7409    4.7306 N.am      1 <0>        -0.5831
     26 C18        -1.2054   -4.3041    4.1516 C.3       1 <0>         0.0848
     27 C19        -1.0466   -5.8216    4.0471 C.3       1 <0>         0.1591
     28 C20        -0.0313   -2.9675    5.8331 C.2       1 <0>         0.5231
     29 O2          0.9887   -2.5086    6.3021 O.2       1 <0>        -0.5140
     30 C21        -1.3586   -2.6730    6.4830 C.3       1 <0>         0.0377
     31 H1         -1.8695   -3.6074    6.7151 H         1 <0>         0.1071
     32 C22        -2.2238   -1.8319    5.5348 C.3       1 <0>         0.0291
     33 O3         -3.4687   -1.5589    6.1873 O.3       1 <0>        -0.2999
     34 C23        -3.4022   -1.1401    7.4806 C.ar      1 <0>         0.0440
     35 C24        -4.5033   -0.5207    8.0530 C.ar      1 <0>        -0.1110
     36 C25        -4.4522   -0.0929    9.3661 C.ar      1 <0>        -0.1155
     37 C26        -3.3038   -0.2809   10.1126 C.ar      1 <0>        -0.1126
     38 C27        -2.2027   -0.8960    9.5479 C.ar      1 <0>        -0.1104
     39 C28        -2.2469   -1.3267    8.2302 C.ar      1 <0>         0.0519
     40 O4         -1.1517   -1.9242    7.6857 O.3       1 <0>        -0.2785
     41 H2         -1.5098    1.3743   -1.3469 H         1 <0>         0.0693
     42 H3         -0.6420    1.6002    0.1907 H         1 <0>         0.0651
     43 H4          0.2631    1.5333   -1.3406 H         1 <0>         0.0652
     44 H5         -1.5435   -0.4197    1.1907 H         1 <0>         0.1215
     45 H6         -1.3283   -2.8596    1.4309 H         1 <0>         0.1369
     46 H7          0.8635   -3.0178   -2.2377 H         1 <0>         0.1237
     47 H8          0.6336   -0.5789   -2.4738 H         1 <0>         0.1243
     48 H9         -0.1139   -5.0489   -1.0412 H         1 <0>         0.4118
     49 H10         0.4775   -8.8170    1.6204 H         1 <0>         0.4364
     50 H11         0.2317  -10.4452    7.0697 H         1 <0>         0.1496
     51 H12        -0.2492  -12.7507    4.9962 H         1 <0>         0.0895
     52 H13         1.3665  -12.5747    4.2706 H         1 <0>         0.0849
     53 H14         1.1674  -12.4678    6.0361 H         1 <0>         0.0854
     54 H15        -1.2463   -7.7652    7.3839 H         1 <0>         0.0885
     55 H16         0.3851   -8.1303    7.9953 H         1 <0>         0.0858
     56 H17         0.1277   -6.7300    6.9269 H         1 <0>         0.0825
     57 H18         1.6299   -5.9764    4.9787 H         1 <0>         0.0591
     58 H19         2.3180   -5.7956    3.3438 H         1 <0>         0.0683
     59 H20         2.1216   -3.6226    4.6841 H         1 <0>         0.0859
     60 H21         1.3278   -3.5996    3.0877 H         1 <0>         0.1006
     61 H22        -2.0544   -4.0670    4.7927 H         1 <0>         0.0749
     62 H23        -1.3663   -3.8863    3.1578 H         1 <0>         0.1048
     63 H24        -1.8586   -6.2324    3.4470 H         1 <0>         0.0656
     64 H25        -1.0690   -6.2586    5.0454 H         1 <0>         0.0707
     65 H26        -1.7152   -0.8952    5.3067 H         1 <0>         0.0843
     66 H27        -2.4053   -2.3860    4.6139 H         1 <0>         0.1308
     67 H28        -5.4014   -0.3722    7.4718 H         1 <0>         0.1357
     68 H29        -5.3107    0.3894    9.8098 H         1 <0>         0.1337
     69 H30        -3.2671    0.0539   11.1388 H         1 <0>         0.1341
     70 H31        -1.3069   -1.0417   10.1333 H         1 <0>         0.1365
@<TRIPOS>BOND
     1    1    2 1
     2    1   41 1
     3    1   42 1
     4    1   43 1
     5    2    7 ar
     6    2    3 ar
     7    3    4 ar
     8    3   44 1
     9    4    5 ar
    10    4   45 1
    11    5    6 ar
    12    5    8 1
    13    6    7 ar
    14    6   46 1
    15    7   47 1
    16    8    9 am
    17    8   48 1
    18    9   10 2
    19    9   11 1
    20   11   12 2
    21   12   13 1
    22   12   22 1
    23   13   14 1
    24   13   49 1
    25   14   19 ar
    26   14   15 ar
    27   15   16 ar
    28   16   17 ar
    29   16   21 1
    30   17   18 ar
    31   17   50 1
    32   18   19 ar
    33   18   20 1
    34   20   51 1
    35   20   52 1
    36   20   53 1
    37   21   54 1
    38   21   55 1
    39   21   56 1
    40   22   27 1
    41   22   23 1
    42   23   24 1
    43   23   57 1
    44   23   58 1
    45   24   25 1
    46   24   59 1
    47   24   60 1
    48   25   26 1
    49   25   28 am
    50   26   27 1
    51   26   61 1
    52   26   62 1
    53   27   63 1
    54   27   64 1
    55   28   29 2
    56   28   30 1
    57   30   31 1
    58   30   40 1
    59   30   32 1
    60   32   33 1
    61   32   65 1
    62   32   66 1
    63   33   34 1
    64   34   39 ar
    65   34   35 ar
    66   35   36 ar
    67   35   67 1
    68   36   37 ar
    69   36   68 1
    70   37   38 ar
    71   37   69 1
    72   38   39 ar
    73   38   70 1
    74   39   40 1
@<TRIPOS>MOLECULE
ZINC09298068
   64    67     0     0     0
SMALL
USER_CHARGES
methyl [6-methyl-2-[4-(1-piperidylsulfonyl)benzoyl]amino-4,5,6,7-tetrahydrobenzothiophen-3-yl]carbonylaminoformate
@<TRIPOS>ATOM
      1 C1         -0.0187    1.5258    0.0104 C.3       1 <0>        -0.1478
      2 C2          0.0021   -0.0041    0.0020 C.3       1 <0>        -0.0877
      3 H1         -1.0198   -0.3833    0.0047 H         1 <0>         0.0776
      4 C3          0.7423   -0.5142    1.2418 C.3       1 <0>        -0.1135
      5 C4          0.5567   -2.0270    1.3727 C.3       1 <0>        -0.0628
      6 C5          0.9413   -2.6843    0.0529 C.2       1 <0>        -0.0634
      7 C6          1.0083   -1.9656   -1.0886 C.2       1 <0>        -0.2008
      8 S1          1.4838   -3.1330   -2.3318 S.3       1 <0>         0.2508
      9 C7          1.5922   -4.5575   -1.3515 C.2       1 <0>         0.0755
     10 C8          1.2581   -4.0959   -0.0848 C.2       1 <0>        -0.2283
     11 C9          1.2261   -4.9980    1.0688 C.2       1 <0>         0.5883
     12 O1          0.1979   -5.5817    1.3564 O.2       1 <0>        -0.4461
     13 N1          2.3356   -5.1815    1.8117 N.am      1 <0>        -0.6577
     14 C10         2.3062   -6.0115    2.8732 C.2       1 <0>         0.6377
     15 O2          1.2797   -6.5942    3.1603 O.2       1 <0>        -0.5040
     16 O3          3.4142   -6.1947    3.6151 O.3       1 <0>        -0.3647
     17 C11         3.3094   -7.1028    4.7433 C.3       1 <0>         0.0526
     18 N2          1.9297   -5.8441   -1.7374 N.am      1 <0>        -0.6162
     19 C12         2.2267   -6.1052   -3.0258 C.2       1 <0>         0.5546
     20 O4          2.1984   -5.2114   -3.8492 O.2       1 <0>        -0.4813
     21 C13         2.5868   -7.4782   -3.4375 C.ar      1 <0>        -0.0826
     22 C14         2.6259   -8.5058   -2.4934 C.ar      1 <0>        -0.1050
     23 C15         2.9572   -9.7862   -2.8855 C.ar      1 <0>        -0.0231
     24 C16         3.2615  -10.0508   -4.2091 C.ar      1 <0>        -0.6497
     25 C17         3.2303   -9.0358   -5.1489 C.ar      1 <0>        -0.0234
     26 C18         2.8950   -7.7520   -4.7713 C.ar      1 <0>        -0.0705
     27 S2          3.6903  -11.6878   -4.7001 S.o2      1 <0>         2.6874
     28 O5          3.1170  -12.5634   -3.7389 O.2       1 <0>        -0.9469
     29 O6          3.4000  -11.7847   -6.0877 O.2       1 <0>        -0.9463
     30 N3          5.3332  -11.8298   -4.5492 N.pl3     1 <0>        -0.9942
     31 C19         6.2193  -11.5046   -5.6752 C.3       1 <0>         0.1172
     32 C20         7.2634  -10.4844   -5.1965 C.3       1 <0>        -0.1367
     33 C21         7.9869  -11.0418   -3.9685 C.3       1 <0>        -0.1190
     34 C22         6.9793  -11.2656   -2.8385 C.3       1 <0>        -0.1367
     35 C23         5.9323  -12.2892   -3.2887 C.3       1 <0>         0.1176
     36 C24         0.7357   -0.5020   -1.2518 C.3       1 <0>        -0.0317
     37 H2          1.0039    1.9031    0.0027 H         1 <0>         0.0575
     38 H3         -0.5459    1.8868   -0.8726 H         1 <0>         0.0584
     39 H4         -0.5289    1.8773    0.9072 H         1 <0>         0.0590
     40 H5          1.8041   -0.2864    1.1489 H         1 <0>         0.0686
     41 H6          0.3440   -0.0224    2.1293 H         1 <0>         0.0725
     42 H7          1.1964   -2.4060    2.1697 H         1 <0>         0.0714
     43 H8         -0.4852   -2.2487    1.6038 H         1 <0>         0.0821
     44 H9          3.1552   -4.7162    1.5825 H         1 <0>         0.4223
     45 H10         2.5509   -6.7367    5.4352 H         1 <0>         0.0686
     46 H11         3.0283   -8.0939    4.3871 H         1 <0>         0.0681
     47 H12         4.2704   -7.1596    5.2545 H         1 <0>         0.1101
     48 H13         1.9523   -6.5573   -1.0803 H         1 <0>         0.4192
     49 H14         2.3932   -8.2996   -1.4591 H         1 <0>         0.1341
     50 H15         2.9834  -10.5830   -2.1569 H         1 <0>         0.1504
     51 H16         3.4686   -9.2491   -6.1804 H         1 <0>         0.1525
     52 H17         2.8707   -6.9607   -5.5059 H         1 <0>         0.1528
     53 H18         6.7197  -12.4096   -6.0196 H         1 <0>         0.0799
     54 H19         5.6340  -11.0761   -6.4888 H         1 <0>         0.0920
     55 H20         6.7684   -9.5495   -4.9339 H         1 <0>         0.0667
     56 H21         7.9852  -10.3033   -5.9930 H         1 <0>         0.0779
     57 H22         8.7472  -10.3322   -3.6419 H         1 <0>         0.0660
     58 H23         8.4610  -11.9891   -4.2252 H         1 <0>         0.0669
     59 H24         6.4870  -10.3233   -2.5982 H         1 <0>         0.0659
     60 H25         7.4989  -11.6404   -1.9567 H         1 <0>         0.0777
     61 H26         5.1576  -12.3786   -2.5272 H         1 <0>         0.0910
     62 H27         6.4098  -13.2569   -3.4425 H         1 <0>         0.0796
     63 H28         0.1117   -0.3405   -2.1308 H         1 <0>         0.0834
     64 H29         1.6766    0.0364   -1.3648 H         1 <0>         0.0862
@<TRIPOS>BOND
     1    1    2 1
     2    1   37 1
     3    1   38 1
     4    1   39 1
     5    2    3 1
     6    2   36 1
     7    2    4 1
     8    4    5 1
     9    4   40 1
    10    4   41 1
    11    5    6 1
    12    5   42 1
    13    5   43 1
    14    6   10 1
    15    6    7 2
    16    7    8 1
    17    7   36 1
    18    8    9 1
    19    9   10 2
    20    9   18 1
    21   10   11 1
    22   11   12 2
    23   11   13 am
    24   13   14 am
    25   13   44 1
    26   14   15 2
    27   14   16 1
    28   16   17 1
    29   17   45 1
    30   17   46 1
    31   17   47 1
    32   18   19 am
    33   18   48 1
    34   19   20 2
    35   19   21 1
    36   21   26 ar
    37   21   22 ar
    38   22   23 ar
    39   22   49 1
    40   23   24 ar
    41   23   50 1
    42   24   25 ar
    43   24   27 1
    44   25   26 ar
    45   25   51 1
    46   26   52 1
    47   27   28 2
    48   27   29 2
    49   27   30 1
    50   30   35 1
    51   30   31 1
    52   31   32 1
    53   31   53 1
    54   31   54 1
    55   32   33 1
    56   32   55 1
    57   32   56 1
    58   33   34 1
    59   33   57 1
    60   33   58 1
    61   34   35 1
    62   34   59 1
    63   34   60 1
    64   35   61 1
    65   35   62 1
    66   36   63 1
    67   36   64 1
@<TRIPOS>MOLECULE
ZINC09271200
   61    63     0     0     0
SMALL
USER_CHARGES

@<TRIPOS>ATOM
      1 C1          5.9676   -5.0013   -2.9406 C.3       1 <0>        -0.1517
      2 C2          4.6075   -5.0873   -2.2451 C.3       1 <0>         0.0630
      3 O1          4.7984   -5.1335   -0.8297 O.3       1 <0>        -0.3620
      4 C3          3.6904   -5.2112   -0.0646 C.2       1 <0>         0.5378
      5 O2          2.5922   -5.2389   -0.5860 O.2       1 <0>        -0.4965
      6 C4          3.8100   -5.2623    1.3961 C.2       1 <0>        -0.0732
      7 C5          2.7744   -5.3470    2.2800 C.2       1 <0>         0.0001
      8 C6          3.3374   -5.3710    3.5755 C.2       1 <0>        -0.2395
      9 C7          4.7111   -5.2989    3.4229 C.2       1 <0>         0.1441
     10 N1          4.9887   -5.2390    2.1109 N.pl3     1 <0>        -0.5231
     11 H1          5.8777   -5.1855    1.7267 H         1 <0>         0.4211
     12 C8          5.7232   -5.2943    4.5394 C.3       1 <0>        -0.0931
     13 C9          2.6006   -5.4562    4.8498 C.2       1 <0>         0.5383
     14 O3          1.3839   -5.4206    4.8528 O.2       1 <0>        -0.4757
     15 C10         3.3338   -5.5839    6.1140 C.2       1 <0>        -0.4911
     16 C11         3.9254   -6.7016    6.5940 C.2       1 <0>         0.2550
     17 C12         4.5539   -6.3975    7.8965 C.2       1 <0>         0.5139
     18 O4          5.1644   -7.1957    8.5794 O.2       1 <0>        -0.5225
     19 N2          4.3508   -5.1059    8.2140 N.am      1 <0>        -0.6157
     20 C13         3.5794   -4.4906    7.1275 C.3       1 <0>         0.2658
     21 H2          4.1487   -3.6796    6.6734 H         1 <0>         0.0746
     22 C14         2.2678   -3.9709    7.6571 C.ar      1 <0>        -0.0624
     23 C15         1.5345   -4.7287    8.5510 C.ar      1 <0>        -0.0867
     24 C16         0.3317   -4.2522    9.0374 C.ar      1 <0>        -0.0892
     25 C17        -0.1383   -3.0168    8.6296 C.ar      1 <0>        -0.0922
     26 C18         0.5958   -2.2588    7.7352 C.ar      1 <0>        -0.0886
     27 C19         1.8010   -2.7338    7.2534 C.ar      1 <0>        -0.1086
     28 Br1        -1.7842   -2.3646    9.2942 Br        1 <0>        -0.0575
     29 C20         4.8215   -4.4317    9.4265 C.3       1 <0>         0.1128
     30 C21         6.2090   -3.8383    9.1741 C.3       1 <0>        -0.0357
     31 N3          6.6809   -3.1622   10.3899 N.4       1 <0>        -0.3837
     32 C22         8.0594   -2.6967   10.1875 C.3       1 <0>        -0.0449
     33 C23         5.8133   -2.0126   10.6791 C.3       1 <0>        -0.0530
     34 O5          3.9394   -7.9070    5.9792 O.3       1 <0>        -0.6412
     35 C24         1.3075   -5.4036    1.9391 C.3       1 <0>        -0.1004
     36 H3          6.5635   -5.8768   -2.6828 H         1 <0>         0.0660
     37 H4          5.8220   -4.9661   -4.0203 H         1 <0>         0.0803
     38 H5          6.4862   -4.0998   -2.6143 H         1 <0>         0.0650
     39 H6          4.0116   -4.2118   -2.5029 H         1 <0>         0.0683
     40 H7          4.0889   -5.9888   -2.5714 H         1 <0>         0.0690
     41 H8          5.9381   -6.3200    4.8392 H         1 <0>         0.0915
     42 H9          6.6407   -4.8162    4.1961 H         1 <0>         0.0571
     43 H10         5.3229   -4.7433    5.3904 H         1 <0>         0.0947
     44 H11         1.9013   -5.6934    8.8690 H         1 <0>         0.1242
     45 H12        -0.2413   -4.8445    9.7354 H         1 <0>         0.1290
     46 H13         0.2292   -1.2942    7.4166 H         1 <0>         0.1295
     47 H14         2.3763   -2.1403    6.5582 H         1 <0>         0.1271
     48 H15         4.1277   -3.6338    9.6911 H         1 <0>         0.0969
     49 H16         4.8770   -5.1508   10.2437 H         1 <0>         0.0985
     50 H17         6.9028   -4.6363    8.9095 H         1 <0>         0.1352
     51 H18         6.1534   -3.1192    8.3568 H         1 <0>         0.1332
     52 H19         8.0883   -1.9999    9.3498 H         1 <0>         0.1209
     53 H20         8.4096   -2.1950   11.0897 H         1 <0>         0.1223
     54 H21         8.7032   -3.5497    9.9730 H         1 <0>         0.1228
     55 H22         5.8422   -1.3158    9.8414 H         1 <0>         0.1230
     56 H23         4.7904   -2.3581   10.8292 H         1 <0>         0.1251
     57 H24         6.1635   -1.5110   11.5812 H         1 <0>         0.1231
     58 H25         1.0028   -6.4429    1.8166 H         1 <0>         0.0723
     59 H26         0.7297   -4.9479    2.7432 H         1 <0>         0.0834
     60 H27         1.1290   -4.8608    1.0108 H         1 <0>         0.0757
     61 H28         6.6542   -3.8073   11.1653 H         1 <0>         0.4277
@<TRIPOS>BOND
     1    1    2 1
     2    1   36 1
     3    1   37 1
     4    1   38 1
     5    2    3 1
     6    2   39 1
     7    2   40 1
     8    3    4 1
     9    4    5 2
    10    4    6 1
    11    6   10 1
    12    6    7 2
    13    7    8 1
    14    7   35 1
    15    8    9 2
    16    8   13 1
    17    9   10 1
    18    9   12 1
    19   10   11 1
    20   12   41 1
    21   12   42 1
    22   12   43 1
    23   13   14 2
    24   13   15 1
    25   15   20 1
    26   15   16 2
    27   16   17 1
    28   16   34 1
    29   17   18 2
    30   17   19 am
    31   19   20 1
    32   19   29 1
    33   20   21 1
    34   20   22 1
    35   22   27 ar
    36   22   23 ar
    37   23   24 ar
    38   23   44 1
    39   24   25 ar
    40   24   45 1
    41   25   26 ar
    42   25   28 1
    43   26   27 ar
    44   26   46 1
    45   27   47 1
    46   29   30 1
    47   29   48 1
    48   29   49 1
    49   30   31 1
    50   30   50 1
    51   30   51 1
    52   31   32 1
    53   31   33 1
    54   31   61 1
    55   32   52 1
    56   32   53 1
    57   32   54 1
    58   33   55 1
    59   33   56 1
    60   33   57 1
    61   35   58 1
    62   35   59 1
    63   35   60 1
@<TRIPOS>MOLECULE
ZINC36185392
   73    78     0     0     0
SMALL
USER_CHARGES

@<TRIPOS>ATOM
      1 C1         -0.0167    1.3788    0.0096 C.ar      1 <0>        -0.0940
      2 C2          1.1667    2.0885    0.0021 C.ar      1 <0>        -0.0635
      3 C3          2.3855    1.4089   -0.0132 C.ar      1 <0>        -0.1017
      4 C4          2.3999    0.0133   -0.0208 C.ar      1 <0>        -0.1230
      5 C5          1.2084   -0.6863   -0.0132 C.ar      1 <0>         0.0982
      6 C6          0.0021   -0.0041    0.0020 C.ar      1 <0>        -0.1219
      7 F1          1.2193   -2.0372   -0.0210 F         1 <0>        -0.1315
      8 C7          3.6564    2.1643   -0.0217 C.2       1 <0>         0.5655
      9 O1          3.6411    3.3797   -0.0155 O.2       1 <0>        -0.5271
     10 N1          4.8320    1.5053   -0.0365 N.am      1 <0>        -0.5151
     11 N2          6.0363    2.2211   -0.0446 N.am      1 <0>        -0.5202
     12 C8          7.2118    1.5621   -0.0594 C.2       1 <0>         0.5191
     13 O2          7.2271    0.3494   -0.0657 O.2       1 <0>        -0.5100
     14 C9          8.5072    2.3320   -0.0682 C.3       1 <0>         0.0555
     15 O3          9.6050    1.4173   -0.0835 O.3       1 <0>        -0.3287
     16 C10        10.8872    2.0481   -0.0928 C.3       1 <0>         0.0996
     17 H1         10.8525    3.0145    0.4101 H         1 <0>         0.0970
     18 C11        11.9785    1.1221    0.5345 C.3       1 <0>         0.1057
     19 H2         11.6309    0.0891    0.5420 H         1 <0>         0.1295
     20 O4         13.1607    1.2414   -0.2981 O.3       1 <0>        -0.3349
     21 C12        12.9566    2.3277   -1.1859 C.3       1 <0>         0.1958
     22 H3         13.1966    3.2815   -0.7160 H         1 <0>         0.1055
     23 C13        11.4157    2.1805   -1.4847 C.3       1 <0>        -0.0257
     24 H4         11.3243    1.2006   -1.9534 H         1 <0>         0.0790
     25 O5         11.2133    3.1078   -2.4815 O.3       1 <0>        -0.3301
     26 C14        12.4556    3.1070   -3.2339 C.3       1 <0>         0.2608
     27 O6         13.4324    2.2680   -2.5329 O.3       1 <0>        -0.3511
     28 C15        13.0014    4.5286   -3.3136 C.3       1 <0>        -0.1333
     29 C16        12.0028    5.4196   -4.0569 C.3       1 <0>        -0.1153
     30 C17        11.7755    4.8647   -5.4648 C.3       1 <0>        -0.1248
     31 C18        11.2073    3.4471   -5.3686 C.3       1 <0>        -0.1142
     32 C19        12.2035    2.5491   -4.6305 C.3       1 <0>        -0.1210
     33 C20        12.2941    1.5777    1.9606 C.3       1 <0>         0.0361
     34 H5         12.6528    2.6070    1.9688 H         1 <0>         0.0925
     35 C21        13.3174    0.6283    2.6324 C.3       1 <0>         0.0335
     36 O7         13.0245    0.7739    4.0369 O.3       1 <0>        -0.3680
     37 C22        11.6853    1.2733    4.1425 C.3       1 <0>         0.2606
     38 O8         11.1398    1.4241    2.8212 O.3       1 <0>        -0.3558
     39 C23        11.6975    2.6321    4.8449 C.3       1 <0>        -0.1356
     40 C24        12.2731    2.4724    6.2536 C.3       1 <0>        -0.1149
     41 C25        11.4105    1.4899    7.0484 C.3       1 <0>        -0.1230
     42 C26        11.4064    0.1306    6.3463 C.3       1 <0>        -0.1147
     43 C27        10.8295    0.2860    4.9375 C.3       1 <0>        -0.1192
     44 H6         -0.9599    1.9045    0.0260 H         1 <0>         0.1461
     45 H7          1.1496    3.1683    0.0078 H         1 <0>         0.1476
     46 H8          3.3398   -0.5184   -0.0330 H         1 <0>         0.1401
     47 H9         -0.9271   -0.5546    0.0083 H         1 <0>         0.1450
     48 H10         4.8442    0.5354   -0.0415 H         1 <0>         0.4334
     49 H11         6.0240    3.1910   -0.0396 H         1 <0>         0.4347
     50 H12         8.5484    2.9639   -0.9554 H         1 <0>         0.0949
     51 H13         8.5657    2.9549    0.8245 H         1 <0>         0.0959
     52 H14        13.1539    4.9160   -2.3063 H         1 <0>         0.0728
     53 H15        13.9513    4.5235   -3.8482 H         1 <0>         0.0896
     54 H16        11.0569    5.4356   -3.5155 H         1 <0>         0.0719
     55 H17        12.3999    6.4324   -4.1251 H         1 <0>         0.0711
     56 H18        11.0709    5.5032   -5.9977 H         1 <0>         0.0690
     57 H19        12.7230    4.8406   -6.0032 H         1 <0>         0.0653
     58 H20        10.2643    3.4697   -4.8223 H         1 <0>         0.0721
     59 H21        11.0376    3.0546   -6.3712 H         1 <0>         0.0726
     60 H22        13.1423    2.5169   -5.1836 H         1 <0>         0.0872
     61 H23        11.7946    1.5419   -4.5508 H         1 <0>         0.0772
     62 H24        13.1574   -0.4007    2.3103 H         1 <0>         0.0822
     63 H25        14.3374    0.9464    2.4167 H         1 <0>         0.1071
     64 H26        12.3141    3.3290    4.2773 H         1 <0>         0.0676
     65 H27        10.6797    3.0168    4.9096 H         1 <0>         0.0802
     66 H28        13.2921    2.0911    6.1888 H         1 <0>         0.0719
     67 H29        12.2783    3.4399    6.7558 H         1 <0>         0.0662
     68 H30        11.8186    1.3786    8.0530 H         1 <0>         0.0663
     69 H31        10.3908    1.8698    7.1106 H         1 <0>         0.0622
     70 H32        12.4264   -0.2480    6.2814 H         1 <0>         0.0722
     71 H33        10.7942   -0.5699    6.9143 H         1 <0>         0.0683
     72 H34         9.8080    0.6608    5.0025 H         1 <0>         0.0792
     73 H35        10.8304   -0.6817    4.4358 H         1 <0>         0.0745
@<TRIPOS>BOND
     1    1    6 ar
     2    1    2 ar
     3    1   44 1
     4    2    3 ar
     5    2   45 1
     6    3    4 ar
     7    3    8 1
     8    4    5 ar
     9    4   46 1
    10    5    6 ar
    11    5    7 1
    12    6   47 1
    13    8    9 2
    14    8   10 am
    15   10   11 1
    16   10   48 1
    17   11   12 am
    18   11   49 1
    19   12   13 2
    20   12   14 1
    21   14   15 1
    22   14   50 1
    23   14   51 1
    24   15   16 1
    25   16   17 1
    26   16   23 1
    27   16   18 1
    28   18   19 1
    29   18   20 1
    30   18   33 1
    31   20   21 1
    32   21   22 1
    33   21   27 1
    34   21   23 1
    35   23   24 1
    36   23   25 1
    37   25   26 1
    38   26   32 1
    39   26   27 1
    40   26   28 1
    41   28   29 1
    42   28   52 1
    43   28   53 1
    44   29   30 1
    45   29   54 1
    46   29   55 1
    47   30   31 1
    48   30   56 1
    49   30   57 1
    50   31   32 1
    51   31   58 1
    52   31   59 1
    53   32   60 1
    54   32   61 1
    55   33   34 1
    56   33   38 1
    57   33   35 1
    58   35   36 1
    59   35   62 1
    60   35   63 1
    61   36   37 1
    62   37   43 1
    63   37   38 1
    64   37   39 1
    65   39   40 1
    66   39   64 1
    67   39   65 1
    68   40   41 1
    69   40   66 1
    70   40   67 1
    71   41   42 1
    72   41   68 1
    73   41   69 1
    74   42   43 1
    75   42   70 1
    76   42   71 1
    77   43   72 1
    78   43   73 1
@<TRIPOS>MOLECULE
ZINC43211928
   64    67     0     0     0
SMALL
USER_CHARGES

@<TRIPOS>ATOM
      1 C1          0.4326    1.9057    0.1012 C.3       1 <0>        -0.1645
      2 C2          0.3345    0.3797    0.1517 C.3       1 <0>         0.1586
      3 C3          1.1109   -0.1415    1.3627 C.3       1 <0>        -0.1659
      4 C4         -1.1338   -0.0333    0.2710 C.3       1 <0>        -0.1525
      5 N1          0.9032   -0.1870   -1.0737 N.am      1 <0>        -0.5867
      6 C5          0.1898   -0.9598   -1.9560 C.2       1 <0>         0.5864
      7 O1         -1.0117   -1.1140   -2.0026 O.2       1 <0>        -0.4379
      8 C6          1.1897   -1.5482   -2.8164 C.3       1 <0>        -0.2057
      9 H1          1.6621   -2.2747   -2.1553 H         1 <0>         0.1272
     10 C7          1.3064   -2.2004   -4.1283 C.3       1 <0>         0.1332
     11 H2          1.0069   -3.2464   -4.0618 H         1 <0>         0.1639
     12 N2          2.7637   -2.0926   -4.4676 N.4       1 <0>        -0.5006
     13 C8          3.4167   -1.2717   -3.3964 C.3       1 <0>         0.0071
     14 C9          2.2507   -0.3806   -2.9176 C.3       1 <0>        -0.1116
     15 H3          1.9874    0.4269   -3.6007 H         1 <0>         0.1661
     16 C10         2.1985    0.0018   -1.4639 C.2       1 <0>         0.5471
     17 O2          3.1185    0.3946   -0.7791 O.2       1 <0>        -0.4087
     18 C11         3.9443   -2.1668   -2.2733 C.3       1 <0>         0.0601
     19 O3          4.9251   -3.0630   -2.7994 O.3       1 <0>        -0.3730
     20 C12         5.4847   -3.9481   -1.8270 C.3       1 <0>         0.1058
     21 C13         6.5011   -4.8429   -2.4882 C.ar      1 <0>        -0.0980
     22 C14         6.1082   -6.0517   -3.0317 C.ar      1 <0>        -0.1010
     23 C15         7.0406   -6.8725   -3.6382 C.ar      1 <0>        -0.1249
     24 C16         8.3658   -6.4843   -3.7017 C.ar      1 <0>        -0.1089
     25 C17         8.7585   -5.2751   -3.1590 C.ar      1 <0>        -0.1201
     26 C18         7.8254   -4.4524   -2.5563 C.ar      1 <0>        -0.0905
     27 C19         4.5234   -0.4259   -3.9718 C.2       1 <0>         0.5139
     28 O4          4.7906   -0.4971   -5.1592 O.co2     1 <0>        -0.6560
     29 O5          5.1515    0.3296   -3.2498 O.co2     1 <0>        -0.6075
     30 C20         0.4693   -1.4780   -5.1522 C.ar      1 <0>        -0.0978
     31 C21         0.9458   -0.3219   -5.7428 C.ar      1 <0>        -0.1400
     32 C22         0.1803    0.3431   -6.6825 C.ar      1 <0>        -0.0562
     33 C23        -1.0633   -0.1458   -7.0335 C.ar      1 <0>        -0.1695
     34 C24        -1.5435   -1.3052   -6.4425 C.ar      1 <0>         0.1187
     35 C25        -0.7707   -1.9742   -5.5042 C.ar      1 <0>        -0.0850
     36 O6         -2.7664   -1.7882   -6.7861 O.3       1 <0>        -0.3071
     37 C26        -3.5040   -1.0510   -7.7632 C.3       1 <0>         0.6051
     38 F1         -2.7733   -0.9955   -8.9549 F         1 <0>        -0.1619
     39 F2         -4.7299   -1.6832   -7.9968 F         1 <0>        -0.1256
     40 F3         -3.7308    0.2474   -7.2943 F         1 <0>        -0.1617
     41 H4          1.4787    2.2000    0.0163 H         1 <0>         0.0697
     42 H5         -0.1204    2.2770   -0.7615 H         1 <0>         0.0637
     43 H6          0.0095    2.3274    1.0130 H         1 <0>         0.0815
     44 H7          0.6878    0.2801    2.2744 H         1 <0>         0.0793
     45 H8          1.0410   -1.2286    1.3986 H         1 <0>         0.0594
     46 H9          2.1570    0.1527    1.2777 H         1 <0>         0.0782
     47 H10        -1.6869    0.3380   -0.5918 H         1 <0>         0.0775
     48 H11        -1.2037   -1.1204    0.3069 H         1 <0>         0.0645
     49 H12        -1.5569    0.3884    1.1827 H         1 <0>         0.0754
     50 H13         3.1780   -3.0122   -4.4947 H         1 <0>         0.4349
     51 H14         4.3961   -1.5483   -1.4977 H         1 <0>         0.1096
     52 H15         3.1202   -2.7392   -1.8474 H         1 <0>         0.0572
     53 H16         5.9684   -3.3666   -1.0422 H         1 <0>         0.0688
     54 H17         4.6926   -4.5575   -1.3919 H         1 <0>         0.0618
     55 H18         5.0728   -6.3550   -2.9821 H         1 <0>         0.1204
     56 H19         6.7337   -7.8172   -4.0622 H         1 <0>         0.1242
     57 H20         9.0943   -7.1259   -4.1749 H         1 <0>         0.1245
     58 H21         9.7939   -4.9720   -3.2083 H         1 <0>         0.1265
     59 H22         8.1316   -3.5060   -2.1356 H         1 <0>         0.1264
     60 H23         1.9174    0.0623   -5.4693 H         1 <0>         0.1395
     61 H24         0.5546    1.2458   -7.1423 H         1 <0>         0.1486
     62 H25        -1.6612    0.3745   -7.7671 H         1 <0>         0.1435
     63 H26        -1.1403   -2.8797   -5.0461 H         1 <0>         0.1509
     64 H27         2.8744   -1.6389   -5.3620 H         1 <0>         0.4397
@<TRIPOS>BOND
     1    1    2 1
     2    1   41 1
     3    1   42 1
     4    1   43 1
     5    2    3 1
     6    2    4 1
     7    2    5 1
     8    3   44 1
     9    3   45 1
    10    3   46 1
    11    4   47 1
    12    4   48 1
    13    4   49 1
    14    5   16 am
    15    5    6 am
    16    6    7 2
    17    6    8 1
    18    8    9 1
    19    8   14 1
    20    8   10 1
    21   10   11 1
    22   10   12 1
    23   10   30 1
    24   12   13 1
    25   12   50 1
    26   12   64 1
    27   13   14 1
    28   13   18 1
    29   13   27 1
    30   14   15 1
    31   14   16 1
    32   16   17 2
    33   18   19 1
    34   18   51 1
    35   18   52 1
    36   19   20 1
    37   20   21 1
    38   20   53 1
    39   20   54 1
    40   21   26 ar
    41   21   22 ar
    42   22   23 ar
    43   22   55 1
    44   23   24 ar
    45   23   56 1
    46   24   25 ar
    47   24   57 1
    48   25   26 ar
    49   25   58 1
    50   26   59 1
    51   27   28 2
    52   27   29 1
    53   30   35 ar
    54   30   31 ar
    55   31   32 ar
    56   31   60 1
    57   32   33 ar
    58   32   61 1
    59   33   34 ar
    60   33   62 1
    61   34   35 ar
    62   34   36 1
    63   35   63 1
    64   36   37 1
    65   37   38 1
    66   37   39 1
    67   37   40 1
@<TRIPOS>MOLECULE
ZINC03379869
   64    67     0     0     0
SMALL
USER_CHARGES

@<TRIPOS>ATOM
      1 C1         -0.0184    1.5028    0.0103 C.3       1 <0>        -0.1003
      2 C2          0.0021   -0.0041    0.0020 C.2       1 <0>        -0.0641
      3 C3          0.0066   -0.7123   -1.1420 C.2       1 <0>        -0.2197
      4 S1          0.0327   -2.4002   -0.5796 S.3       1 <0>         0.2992
      5 C4          0.0371   -2.1591    1.0807 C.2       1 <0>         0.0505
      6 C5          0.0242   -0.7782    1.2226 C.2       1 <0>        -0.2220
      7 C6          0.0279   -0.1391    2.5401 C.2       1 <0>         0.5407
      8 O1         -1.0238    0.1120    3.0973 O.2       1 <0>        -0.4912
      9 O2          1.1976    0.1712    3.1358 O.3       1 <0>        -0.3180
     10 C7          1.1265    0.7930    4.4205 C.3       1 <0>         0.0477
     11 C8          2.5204    1.0634    4.9255 C.2       1 <0>         0.5363
     12 O3          3.4802    0.7541    4.2517 O.2       1 <0>        -0.4825
     13 N1          2.7004    1.6490    6.1260 N.am      1 <0>        -0.4059
     14 C9          3.9842    1.9872    6.7616 C.3       1 <0>         0.2404
     15 H1          4.5751    1.0862    6.9264 H         1 <0>         0.0998
     16 C10         3.6060    2.6180    8.0830 C.2       1 <0>        -0.2573
     17 C11         2.2739    2.6214    8.1554 C.2       1 <0>         0.2357
     18 N2          1.7030    2.0642    7.0184 N.pl3     1 <0>        -0.5509
     19 C12         1.5050    3.1543    9.2954 C.2       1 <0>        -0.1218
     20 C13         0.1469    3.2023    9.4743 C.2       1 <0>        -0.1353
     21 C14        -0.3482    3.7531   10.6350 C.2       1 <0>        -0.1600
     22 C15         0.5199    4.2304   11.5642 C.2       1 <0>        -0.1683
     23 S2          2.1011    3.8977   10.8053 S.3       1 <0>         0.1095
     24 C16         4.7495    2.9668    5.9097 C.ar      1 <0>        -0.0867
     25 C17         4.0823    4.0005    5.2789 C.ar      1 <0>        -0.0931
     26 C18         4.7797    4.9017    4.4963 C.ar      1 <0>        -0.1713
     27 C19         6.1506    4.7705    4.3432 C.ar      1 <0>         0.1048
     28 C20         6.8222    3.7304    4.9785 C.ar      1 <0>         0.1030
     29 C21         6.1178    2.8334    5.7653 C.ar      1 <0>        -0.1507
     30 O4          8.1676    3.5975    4.8312 O.3       1 <0>        -0.3054
     31 C22         8.7901    2.5065    5.5125 C.3       1 <0>         0.0251
     32 O5          6.8382    5.6560    3.5733 O.3       1 <0>        -0.3056
     33 C23         6.0833    6.6978    2.9514 C.3       1 <0>         0.0260
     34 N3          0.0551   -3.1184    2.0811 N.am      1 <0>        -0.6227
     35 C24         0.0723   -4.4271    1.7595 C.2       1 <0>         0.5074
     36 O6          0.0721   -4.7654    0.5949 O.2       1 <0>        -0.5004
     37 C25         0.0919   -5.4701    2.8471 C.3       1 <0>        -0.1651
     38 C26        -0.0071   -0.1993   -2.5589 C.3       1 <0>        -0.0651
     39 H2          1.0042    1.8801    0.0026 H         1 <0>         0.0771
     40 H3         -0.5455    1.8639   -0.8728 H         1 <0>         0.0779
     41 H4         -0.5286    1.8543    0.9071 H         1 <0>         0.0602
     42 H5          0.5807    1.7330    4.3394 H         1 <0>         0.1009
     43 H6          0.6099    0.1317    5.1161 H         1 <0>         0.0999
     44 H7          4.2883    2.9959    8.8300 H         1 <0>         0.1642
     45 H8          0.7495    1.9729    6.8651 H         1 <0>         0.4314
     46 H9         -0.5218    2.8160    8.7194 H         1 <0>         0.1325
     47 H10        -1.4136    3.8053   10.8043 H         1 <0>         0.1390
     48 H11         0.3081    4.6891   12.5188 H         1 <0>         0.1917
     49 H12         3.0138    4.1038    5.3974 H         1 <0>         0.1185
     50 H13         4.2561    5.7078    4.0040 H         1 <0>         0.1345
     51 H14         6.6372    2.0275    6.2625 H         1 <0>         0.1370
     52 H15         8.6211    2.6038    6.5849 H         1 <0>         0.0554
     53 H16         8.3628    1.5673    5.1611 H         1 <0>         0.0558
     54 H17         9.8613    2.5161    5.3112 H         1 <0>         0.1013
     55 H18         5.3323    6.2595    2.2940 H         1 <0>         0.0544
     56 H19         5.5906    7.2965    3.7174 H         1 <0>         0.0548
     57 H20         6.7510    7.3319    2.3682 H         1 <0>         0.1015
     58 H21         0.0553   -2.8478    3.0126 H         1 <0>         0.4184
     59 H22         0.0892   -4.9799    3.8207 H         1 <0>         0.0818
     60 H23        -0.7895   -6.1050    2.7575 H         1 <0>         0.1081
     61 H24         0.9903   -6.0797    2.7498 H         1 <0>         0.1085
     62 H25         1.0171   -0.0613   -2.9053 H         1 <0>         0.0788
     63 H26        -0.5140   -0.9195   -3.2012 H         1 <0>         0.0740
     64 H27        -0.5345    0.7540   -2.5951 H         1 <0>         0.0797
@<TRIPOS>BOND
     1    1    2 1
     2    1   39 1
     3    1   40 1
     4    1   41 1
     5    2    6 1
     6    2    3 2
     7    3    4 1
     8    3   38 1
     9    4    5 1
    10    5    6 2
    11    5   34 1
    12    6    7 1
    13    7    8 2
    14    7    9 1
    15    9   10 1
    16   10   11 1
    17   10   42 1
    18   10   43 1
    19   11   12 2
    20   11   13 am
    21   13   18 1
    22   13   14 1
    23   14   15 1
    24   14   16 1
    25   14   24 1
    26   16   17 2
    27   16   44 1
    28   17   18 1
    29   17   19 1
    30   18   45 1
    31   19   23 1
    32   19   20 2
    33   20   21 1
    34   20   46 1
    35   21   22 2
    36   21   47 1
    37   22   23 1
    38   22   48 1
    39   24   29 ar
    40   24   25 ar
    41   25   26 ar
    42   25   49 1
    43   26   27 ar
    44   26   50 1
    45   27   28 ar
    46   27   32 1
    47   28   29 ar
    48   28   30 1
    49   29   51 1
    50   30   31 1
    51   31   52 1
    52   31   53 1
    53   31   54 1
    54   32   33 1
    55   33   55 1
    56   33   56 1
    57   33   57 1
    58   34   35 am
    59   34   58 1
    60   35   36 2
    61   35   37 1
    62   37   59 1
    63   37   60 1
    64   37   61 1
    65   38   62 1
    66   38   63 1
    67   38   64 1
@<TRIPOS>MOLECULE
ZINC02091272
   58    62     0     0     0
SMALL
USER_CHARGES

@<TRIPOS>ATOM
      1 C1         -0.1755    1.1467    0.7103 C.3       1 <0>         0.0189
      2 N1         -0.1116   -0.3034    0.4837 N.3       1 <0>        -0.5311
      3 C2         -1.4502   -0.9092    0.5641 C.3       1 <0>         0.0529
      4 C3         -1.3825   -2.3159   -0.0309 C.3       1 <0>        -0.0762
      5 C4         -0.2391   -3.0808    0.5856 C.ar      1 <0>        -0.0317
      6 C5         -0.2242   -4.4617    0.4568 C.ar      1 <0>        -0.1059
      7 C6          0.8065   -5.2076    1.0027 C.ar      1 <0>         0.0580
      8 C7          1.8353   -4.5658    1.6847 C.ar      1 <0>         0.0099
      9 C8          1.8170   -3.1845    1.8127 C.ar      1 <0>         0.1198
     10 C9          0.7762   -2.4411    1.2642 C.ar      1 <0>        -0.0989
     11 C10         0.7947   -0.9453    1.4410 C.3       1 <0>         0.1246
     12 H1          0.4799   -0.6989    2.4551 H         1 <0>         0.0769
     13 C11         2.2167   -0.4279    1.2149 C.3       1 <0>         0.0710
     14 N2          2.6327   -0.7270   -0.1575 N.pl3     1 <0>        -0.6247
     15 C12         3.8168   -0.2741   -0.6169 C.2       1 <0>         0.3523
     16 C13         4.1614   -0.4617   -1.9423 C.2       1 <0>        -0.4454
     17 C14         5.5069   -0.1263   -2.4423 C.2       1 <0>         0.5765
     18 O1          6.3553    0.3270   -1.6972 O.2       1 <0>        -0.4985
     19 N3          5.7722   -0.3358   -3.7482 N.am      1 <0>        -0.6135
     20 C15         4.8469   -0.8345   -4.5799 C.2       1 <0>         0.5434
     21 N4          3.6053   -1.1609   -4.1946 N.am      1 <0>        -0.4696
     22 C16         3.2015   -1.0116   -2.9162 C.2       1 <0>         0.5682
     23 O2          2.0735   -1.3169   -2.5774 O.2       1 <0>        -0.4897
     24 C17         2.7079   -1.6752   -5.1403 C.ar      1 <0>         0.1212
     25 C18         2.9292   -2.9263   -5.7003 C.ar      1 <0>        -0.0535
     26 C19         2.0432   -3.4312   -6.6317 C.ar      1 <0>        -0.1020
     27 C20         0.9356   -2.6912   -7.0069 C.ar      1 <0>        -0.0155
     28 C21         0.7129   -1.4440   -6.4501 C.ar      1 <0>        -0.1032
     29 C22         1.5931   -0.9370   -5.5144 C.ar      1 <0>        -0.0693
     30 Cl1        -0.1760   -3.3283   -8.1783 Cl        1 <0>        -0.0613
     31 S1          5.2733   -1.0663   -6.2217 S.2       1 <0>        -0.5213
     32 O3          2.8212   -2.5535    2.4784 O.3       1 <0>        -0.3224
     33 C23         2.7038   -2.4681    3.9000 C.3       1 <0>         0.0255
     34 O4          2.7227   -5.5072    2.1231 O.3       1 <0>        -0.2981
     35 C24         2.0166   -6.7604    2.0575 C.3       1 <0>         0.2105
     36 O5          1.0469   -6.5514    1.0138 O.3       1 <0>        -0.3023
     37 H2          0.8302    1.5652    0.6715 H         1 <0>         0.0709
     38 H3         -0.7911    1.6082   -0.0618 H         1 <0>         0.0783
     39 H4         -0.6131    1.3425    1.6892 H         1 <0>         0.0328
     40 H5         -1.7640   -0.9671    1.6063 H         1 <0>         0.0447
     41 H6         -2.1598   -0.3059   -0.0021 H         1 <0>         0.0902
     42 H7         -2.3176   -2.8390    0.1695 H         1 <0>         0.0886
     43 H8         -1.2322   -2.2464   -1.1082 H         1 <0>         0.0970
     44 H9         -1.0230   -4.9590   -0.0732 H         1 <0>         0.1433
     45 H10         2.2409    0.6500    1.3752 H         1 <0>         0.0870
     46 H11         2.8960   -0.9146    1.9148 H         1 <0>         0.1324
     47 H12         4.4960    0.2352    0.0507 H         1 <0>         0.1779
     48 H13         3.7936   -3.5040   -5.4081 H         1 <0>         0.1359
     49 H14         2.2150   -4.4041   -7.0679 H         1 <0>         0.1431
     50 H15        -0.1523   -0.8684   -6.7446 H         1 <0>         0.1424
     51 H16         1.4167    0.0346   -5.0772 H         1 <0>         0.1337
     52 H17         3.5217   -1.8667    4.2966 H         1 <0>         0.1024
     53 H18         1.7524   -2.0034    4.1587 H         1 <0>         0.0501
     54 H19         2.7477   -3.4692    4.3290 H         1 <0>         0.0529
     55 H20         2.6966   -7.5698    1.7921 H         1 <0>         0.1364
     56 H21         1.5204   -6.9706    3.0049 H         1 <0>         0.0875
     57 H22         6.6528   -0.1204   -4.0934 H         1 <0>         0.4451
     58 H23         2.0564   -1.2508   -0.7358 H         1 <0>         0.4315
@<TRIPOS>BOND
     1    1    2 1
     2    1   37 1
     3    1   38 1
     4    1   39 1
     5    2   11 1
     6    2    3 1
     7    3    4 1
     8    3   40 1
     9    3   41 1
    10    4    5 1
    11    4   42 1
    12    4   43 1
    13    5   10 ar
    14    5    6 ar
    15    6    7 ar
    16    6   44 1
    17    7   36 1
    18    7    8 ar
    19    8    9 ar
    20    8   34 1
    21    9   10 ar
    22    9   32 1
    23   10   11 1
    24   11   12 1
    25   11   13 1
    26   13   14 1
    27   13   45 1
    28   13   46 1
    29   14   15 1
    30   14   58 1
    31   15   16 2
    32   15   47 1
    33   16   22 1
    34   16   17 1
    35   17   18 2
    36   17   19 am
    37   19   20 1
    38   19   57 1
    39   20   21 1
    40   20   31 2
    41   21   22 am
    42   21   24 1
    43   22   23 2
    44   24   29 ar
    45   24   25 ar
    46   25   26 ar
    47   25   48 1
    48   26   27 ar
    49   26   49 1
    50   27   28 ar
    51   27   30 1
    52   28   29 ar
    53   28   50 1
    54   29   51 1
    55   32   33 1
    56   33   52 1
    57   33   53 1
    58   33   54 1
    59   34   35 1
    60   35   36 1
    61   35   55 1
    62   35   56 1
@<TRIPOS>MOLECULE
ZINC13134607
   51    54     0     0     0
SMALL
USER_CHARGES
N'-[3-[(1,1-dioxo-1,2-benzothiazol-3-yl)amino]propanoyl]-4-methyl-2-phenyl-thiazole-5-carbohydrazide
@<TRIPOS>ATOM
      1 C1         -1.3164    2.0619    0.0196 C.3       1 <0>        -0.0950
      2 C2         -0.0156    1.3010    0.0092 C.2       1 <0>         0.1749
      3 C3          1.2043    1.9654    0.0011 C.2       1 <0>        -0.2878
      4 S1          2.3326    0.5795   -0.0171 S.3       1 <0>         0.1166
      5 C4          1.1407   -0.6833   -0.0125 C.2       1 <0>         0.1618
      6 N1          0.0021   -0.0041    0.0020 N.2       1 <0>        -0.5141
      7 C5          1.3442   -2.1471   -0.0219 C.ar      1 <0>        -0.0357
      8 C6          0.2453   -3.0078   -0.0098 C.ar      1 <0>        -0.0609
      9 C7          0.4422   -4.3731   -0.0240 C.ar      1 <0>        -0.1220
     10 C8          1.7256   -4.8899   -0.0391 C.ar      1 <0>        -0.0903
     11 C9          2.8193   -4.0425   -0.0459 C.ar      1 <0>        -0.1184
     12 C10         2.6363   -2.6751   -0.0371 C.ar      1 <0>        -0.0865
     13 C11         1.4875    3.4037    0.0054 C.2       1 <0>         0.6209
     14 O1          0.5710    4.2043    0.0178 O.2       1 <0>        -0.5180
     15 N2          2.7629    3.8394   -0.0043 N.am      1 <0>        -0.5192
     16 N3          3.0335    5.2140   -0.0001 N.am      1 <0>        -0.5171
     17 C12         4.3089    5.6497   -0.0098 C.2       1 <0>         0.5210
     18 O2          5.2222    4.8519   -0.0221 O.2       1 <0>        -0.5244
     19 C13         4.6001    7.1283   -0.0054 C.3       1 <0>        -0.1467
     20 C14         6.1138    7.3501   -0.0183 C.3       1 <0>         0.1314
     21 N4          6.3969    8.7875   -0.0140 N.pl3     1 <0>        -0.6716
     22 C15         7.7007    9.2329   -0.0239 C.2       1 <0>         0.5117
     23 N5          8.6815    8.3873   -0.0375 N.2       1 <0>        -0.8776
     24 S2         10.0790    9.3081   -0.0458 S.o2      1 <0>         2.5813
     25 O3         10.7355    9.1098    1.1988 O.2       1 <0>        -0.9404
     26 O4         10.7125    9.1223   -1.3041 O.2       1 <0>        -0.9405
     27 C16         9.3722   10.9330   -0.0306 C.ar      1 <0>        -0.6161
     28 C17         7.9943   10.6743   -0.0252 C.ar      1 <0>        -0.1219
     29 C18         7.1303   11.7796   -0.0051 C.ar      1 <0>        -0.0529
     30 C19         7.6388   13.0593   -0.0032 C.ar      1 <0>        -0.0863
     31 C20         9.0037   13.2832   -0.0148 C.ar      1 <0>        -0.0911
     32 C21         9.8736   12.2015   -0.0286 C.ar      1 <0>         0.0056
     33 H1         -1.6249    2.2401    1.0497 H         1 <0>         0.0855
     34 H2         -1.1832    3.0162   -0.4901 H         1 <0>         0.0972
     35 H3         -2.0820    1.4798   -0.4934 H         1 <0>         0.0796
     36 H4         -0.7569   -2.6057    0.0069 H         1 <0>         0.1383
     37 H5         -0.4072   -5.0401   -0.0192 H         1 <0>         0.1342
     38 H6          1.8744   -5.9596   -0.0460 H         1 <0>         0.1317
     39 H7          3.8184   -4.4523   -0.0577 H         1 <0>         0.1348
     40 H8          3.4908   -2.0147   -0.0424 H         1 <0>         0.1287
     41 H9          3.4934    3.2013   -0.0141 H         1 <0>         0.4326
     42 H10         2.3031    5.8521    0.0097 H         1 <0>         0.4354
     43 H11         4.1579    7.5884   -0.8891 H         1 <0>         0.1131
     44 H12         4.1744    7.5798    0.8908 H         1 <0>         0.1131
     45 H13         6.5560    6.8900    0.8654 H         1 <0>         0.0964
     46 H14         6.5395    6.8986   -0.9144 H         1 <0>         0.0964
     47 H15         5.6664    9.4256   -0.0041 H         1 <0>         0.4144
     48 H16         6.0613   11.6260    0.0044 H         1 <0>         0.1394
     49 H17         6.9618   13.9007    0.0072 H         1 <0>         0.1450
     50 H18         9.3897   14.2918   -0.0134 H         1 <0>         0.1477
     51 H19        10.9413   12.3634   -0.0374 H         1 <0>         0.1457
@<TRIPOS>BOND
     1    1    2 1
     2    1   33 1
     3    1   34 1
     4    1   35 1
     5    2    6 1
     6    2    3 2
     7    3    4 1
     8    3   13 1
     9    4    5 1
    10    5    6 2
    11    5    7 1
    12    7   12 ar
    13    7    8 ar
    14    8    9 ar
    15    8   36 1
    16    9   10 ar
    17    9   37 1
    18   10   11 ar
    19   10   38 1
    20   11   12 ar
    21   11   39 1
    22   12   40 1
    23   13   14 2
    24   13   15 am
    25   15   16 1
    26   15   41 1
    27   16   17 am
    28   16   42 1
    29   17   18 2
    30   17   19 1
    31   19   20 1
    32   19   43 1
    33   19   44 1
    34   20   21 1
    35   20   45 1
    36   20   46 1
    37   21   22 1
    38   21   47 1
    39   22   28 1
    40   22   23 2
    41   23   24 1
    42   24   25 2
    43   24   26 2
    44   24   27 1
    45   27   32 ar
    46   27   28 ar
    47   28   29 ar
    48   29   30 ar
    49   29   48 1
    50   30   31 ar
    51   30   49 1
    52   31   32 ar
    53   31   50 1
    54   32   51 1
@<TRIPOS>MOLECULE
ZINC29379569
   59    62     0     0     0
SMALL
USER_CHARGES
(2R)-4-[2-[(4S)-4-butyl-4-(4-fluorophenyl)-2,5-dioxo-imidazolidin-1-yl]acetyl]-2,3-dihydro-1,4-benzoxazine-2-carboxamide
@<TRIPOS>ATOM
      1 C1          7.7689    0.7324   -7.8042 C.3       1 <0>        -0.1555
      2 C2          8.2440    1.8121   -6.8298 C.3       1 <0>        -0.1227
      3 C3          7.0605    2.2985   -5.9909 C.3       1 <0>        -0.1246
      4 C4          7.5355    3.3781   -5.0165 C.3       1 <0>        -0.1164
      5 C5          6.3520    3.8645   -4.1777 C.3       1 <0>         0.1653
      6 C6          5.8186    2.7437   -3.3076 C.2       1 <0>         0.5405
      7 O1          6.4149    2.1437   -2.4392 O.2       1 <0>        -0.4540
      8 N1          4.5433    2.5536   -3.6997 N.am      1 <0>        -0.5625
      9 C7          4.2020    3.3864   -4.6896 C.2       1 <0>         0.7213
     10 O2          3.1046    3.4013   -5.2118 O.2       1 <0>        -0.5345
     11 N2          5.2080    4.2080   -5.0398 N.am      1 <0>        -0.7238
     12 C8          3.6438    1.5542   -3.1181 C.3       1 <0>         0.0985
     13 C9          2.8983    2.1634   -1.9587 C.2       1 <0>         0.5085
     14 O3          3.0306    3.3421   -1.7048 O.2       1 <0>        -0.4935
     15 N3          2.0847    1.3987   -1.2040 N.am      1 <0>        -0.5502
     16 C10         1.8337   -0.0125   -1.5436 C.3       1 <0>         0.0742
     17 C11         1.8624   -0.8165   -0.2359 C.3       1 <0>         0.0602
     18 H1          2.8278   -0.7311    0.2844 H         1 <0>         0.1085
     19 O4          0.8726   -0.2896    0.6509 O.3       1 <0>        -0.2855
     20 C12         0.8517    1.0547    0.8496 C.ar      1 <0>         0.0965
     21 C13         1.4464    1.9197   -0.0654 C.ar      1 <0>         0.0725
     22 C14         1.4134    3.2882    0.1473 C.ar      1 <0>        -0.1148
     23 C15         0.7900    3.7957    1.2728 C.ar      1 <0>        -0.1276
     24 C16         0.2012    2.9389    2.1839 C.ar      1 <0>        -0.0994
     25 C17         0.2304    1.5724    1.9758 C.ar      1 <0>        -0.1228
     26 C18         1.5610   -2.2642   -0.5263 C.2       1 <0>         0.5298
     27 O5          0.5453   -2.7699   -0.0978 O.2       1 <0>        -0.5127
     28 N4          2.4201   -2.9969   -1.2623 N.am      1 <0>        -0.8705
     29 C19         6.7530    5.0464   -3.3330 C.ar      1 <0>        -0.1138
     30 C20         8.0453    5.1448   -2.8519 C.ar      1 <0>        -0.0622
     31 C21         8.4157    6.2311   -2.0820 C.ar      1 <0>        -0.1531
     32 C22         7.4890    7.2155   -1.7835 C.ar      1 <0>         0.1140
     33 C23         6.1935    7.1131   -2.2612 C.ar      1 <0>        -0.1515
     34 C24         5.8268    6.0285   -3.0352 C.ar      1 <0>        -0.0619
     35 F1          7.8485    8.2751   -1.0263 F         1 <0>        -0.1348
     36 H2          8.6198    0.3827   -8.4073 H         1 <0>         0.0570
     37 H3          6.9970    1.1506   -8.4669 H         1 <0>         0.0550
     38 H4          7.3484   -0.1123   -7.2389 H         1 <0>         0.0532
     39 H5          9.0159    1.3939   -6.1671 H         1 <0>         0.0644
     40 H6          8.6645    2.6568   -7.3951 H         1 <0>         0.0661
     41 H7          6.2886    2.7167   -6.6537 H         1 <0>         0.0725
     42 H8          6.6399    1.4538   -5.4256 H         1 <0>         0.0571
     43 H9          8.3074    2.9599   -4.3537 H         1 <0>         0.0929
     44 H10         7.9561    4.2229   -5.5817 H         1 <0>         0.0944
     45 H11         5.3035    5.0097   -5.7869 H         1 <0>         0.4738
     46 H12         2.9253    1.2196   -3.8808 H         1 <0>         0.1374
     47 H13         4.2310    0.6937   -2.7649 H         1 <0>         0.1302
     48 H14         0.8505   -0.1037   -2.0284 H         1 <0>         0.1063
     49 H15         2.6156   -0.3691   -2.2303 H         1 <0>         0.1113
     50 H16         1.8730    3.9577   -0.5647 H         1 <0>         0.1703
     51 H17         0.7629    4.8623    1.4398 H         1 <0>         0.1300
     52 H18        -0.2835    3.3387    3.0623 H         1 <0>         0.1330
     53 H19        -0.2315    0.9078    2.6909 H         1 <0>         0.1383
     54 H20         2.2001   -4.0536   -1.4743 H         1 <0>         0.4364
     55 H21         3.3412   -2.5382   -1.6510 H         1 <0>         0.4209
     56 H22         8.7668    4.3746   -3.0812 H         1 <0>         0.1402
     57 H23         9.4264    6.3098   -1.7096 H         1 <0>         0.1421
     58 H24         5.4697    7.8802   -2.0286 H         1 <0>         0.1403
     59 H25         4.8163    5.9484   -3.4080 H         1 <0>         0.1351
@<TRIPOS>BOND
     1    1    2 1
     2    1   36 1
     3    1   37 1
     4    1   38 1
     5    2    3 1
     6    2   39 1
     7    2   40 1
     8    3    4 1
     9    3   41 1
    10    3   42 1
    11    4    5 1
    12    4   43 1
    13    4   44 1
    14    5   11 1
    15    5    6 1
    16    5   29 1
    17    6    7 2
    18    6    8 am
    19    8    9 am
    20    8   12 1
    21    9   10 2
    22    9   11 am
    23   11   45 1
    24   12   13 1
    25   12   46 1
    26   12   47 1
    27   13   14 2
    28   13   15 am
    29   15   21 1
    30   15   16 1
    31   16   17 1
    32   16   48 1
    33   16   49 1
    34   17   18 1
    35   17   19 1
    36   17   26 1
    37   19   20 1
    38   20   25 ar
    39   20   21 ar
    40   21   22 ar
    41   22   23 ar
    42   22   50 1
    43   23   24 ar
    44   23   51 1
    45   24   25 ar
    46   24   52 1
    47   25   53 1
    48   26   27 2
    49   26   28 am
    50   28   54 1
    51   28   55 1
    52   29   34 ar
    53   29   30 ar
    54   30   31 ar
    55   30   56 1
    56   31   32 ar
    57   31   57 1
    58   32   33 ar
    59   32   35 1
    60   33   34 ar
    61   33   58 1
    62   34   59 1
@<TRIPOS>MOLECULE
ZINC39662854
   71    74     0     0     0
SMALL
USER_CHARGES

@<TRIPOS>ATOM
      1 C1          0.4113   -4.8619    3.2307 C.3       1 <0>        -0.1546
      2 C2          0.2823   -3.9568    2.0039 C.3       1 <0>         0.0533
      3 O1          0.9549   -4.5579    0.8956 O.3       1 <0>        -0.3125
      4 C3          0.9355   -3.8776   -0.2808 C.ar      1 <0>         0.1287
      5 C4          0.2864   -2.6529   -0.3635 C.ar      1 <0>        -0.1793
      6 C5          0.2634   -1.9564   -1.5574 C.ar      1 <0>        -0.0827
      7 C6          0.8852   -2.4740   -2.6754 C.ar      1 <0>        -0.0981
      8 C7          1.5402   -3.7043   -2.6020 C.ar      1 <0>        -0.1012
      9 C8          1.5678   -4.4032   -1.3947 C.ar      1 <0>        -0.1311
     10 C9          2.2071   -4.2623   -3.7978 C.2       1 <0>         0.5922
     11 O2          2.5821   -3.5217   -4.6857 O.2       1 <0>        -0.5270
     12 N1          2.3991   -5.5921   -3.9033 N.am      1 <0>        -0.6183
     13 C10         1.9046   -6.6560   -2.9979 C.3       1 <0>         0.1022
     14 C11         1.4924   -7.8096   -3.9396 C.3       1 <0>        -0.1159
     15 H1          0.4264   -7.7567   -4.1605 H         1 <0>         0.1132
     16 C12         2.3161   -7.5853   -5.2188 C.3       1 <0>        -0.0721
     17 C13         3.1474   -6.3215   -4.9550 C.3       1 <0>         0.1096
     18 C14         1.3906   -7.3613   -6.4108 C.3       1 <0>        -0.1359
     19 C15         2.2313   -7.1975   -7.6801 C.3       1 <0>        -0.0098
     20 N2          3.0469   -8.4004   -7.8874 N.4       1 <0>        -0.5048
     21 C16         3.9986   -8.5571   -6.7810 C.3       1 <0>        -0.0066
     22 C17         3.2326   -8.7780   -5.4735 C.3       1 <0>        -0.1487
     23 C18         1.8334   -9.1402   -3.3197 C.2       1 <0>         0.5168
     24 O3          2.7226   -9.2165   -2.4984 O.2       1 <0>        -0.5252
     25 N3          1.1503  -10.2454   -3.6780 N.am      1 <0>        -0.7211
     26 C19         1.4818  -11.5389   -3.0754 C.3       1 <0>         0.1203
     27 C20         0.5645  -12.6197   -3.6509 C.3       1 <0>        -0.0948
     28 C21        -0.8803  -12.3374   -3.2341 C.3       1 <0>        -0.1127
     29 C22        -1.7976  -13.4182   -3.8097 C.3       1 <0>        -0.0909
     30 C23        -1.3709  -14.7869   -3.2754 C.3       1 <0>        -0.1560
     31 C24         0.0739  -15.0692   -3.6922 C.3       1 <0>        -0.0905
     32 C25         0.9912  -13.9884   -3.1166 C.3       1 <0>        -0.1108
     33 C26        -2.2744  -15.8515   -3.8423 C.2       1 <0>         0.4916
     34 O4         -1.8489  -16.9799   -4.0220 O.co2     1 <0>        -0.6981
     35 O5         -3.4308  -15.5844   -4.1213 O.co2     1 <0>        -0.6999
     36 H2         -0.0377   -5.8316    3.0156 H         1 <0>         0.0687
     37 H3          1.4653   -4.9956    3.4743 H         1 <0>         0.0680
     38 H4         -0.1017   -4.4034    4.0761 H         1 <0>         0.0819
     39 H5         -0.7716   -3.8231    1.7602 H         1 <0>         0.0650
     40 H6          0.7314   -2.9872    2.2189 H         1 <0>         0.0645
     41 H7         -0.2026   -2.2432    0.5080 H         1 <0>         0.1356
     42 H8         -0.2431   -1.0043   -1.6155 H         1 <0>         0.1365
     43 H9          0.8647   -1.9276   -3.6068 H         1 <0>         0.1363
     44 H10         2.0771   -5.3534   -1.3305 H         1 <0>         0.1432
     45 H11         2.6975   -6.9804   -2.3240 H         1 <0>         0.1044
     46 H12         1.0436   -6.3023   -2.4307 H         1 <0>         0.1017
     47 H13         3.2179   -5.7179   -5.8598 H         1 <0>         0.0901
     48 H14         4.1414   -6.5905   -4.5976 H         1 <0>         0.0854
     49 H15         0.7266   -8.2185   -6.5221 H         1 <0>         0.0986
     50 H16         0.7987   -6.4606   -6.2477 H         1 <0>         0.1179
     51 H17         1.5722   -7.0537   -8.5362 H         1 <0>         0.1390
     52 H18         2.8834   -6.3305   -7.5744 H         1 <0>         0.1329
     53 H19         2.4456   -9.2096   -7.9293 H         1 <0>         0.4297
     54 H20         4.6420   -9.4155   -6.9743 H         1 <0>         0.1391
     55 H21         4.6088   -7.6579   -6.6968 H         1 <0>         0.1318
     56 H22         3.9396   -8.8762   -4.6497 H         1 <0>         0.1256
     57 H23         2.6348   -9.6862   -5.5510 H         1 <0>         0.1012
     58 H24         0.4392  -10.1843   -4.3348 H         1 <0>         0.4005
     59 H25         2.5197  -11.7876   -3.2967 H         1 <0>         0.0691
     60 H26         1.3440  -11.4827   -1.9956 H         1 <0>         0.0732
     61 H27         0.6363  -12.6158   -4.7386 H         1 <0>         0.0710
     62 H28        -0.9521  -12.3413   -2.1465 H         1 <0>         0.0611
     63 H29        -1.1844  -11.3623   -3.6148 H         1 <0>         0.0482
     64 H30        -2.8269  -13.2171   -3.5128 H         1 <0>         0.0668
     65 H31        -1.7258  -13.4143   -4.8973 H         1 <0>         0.0505
     66 H32        -1.4426  -14.7908   -2.1878 H         1 <0>         0.0617
     67 H33         0.3780  -16.0443   -3.3115 H         1 <0>         0.0690
     68 H34         0.1457  -15.0653   -4.7798 H         1 <0>         0.0513
     69 H35         2.0206  -14.1895   -3.4135 H         1 <0>         0.0565
     70 H36         0.9195  -13.9923   -2.0290 H         1 <0>         0.0621
     71 H37         3.5537   -8.3159   -8.7558 H         1 <0>         0.4327
@<TRIPOS>BOND
     1    1    2 1
     2    1   36 1
     3    1   37 1
     4    1   38 1
     5    2    3 1
     6    2   39 1
     7    2   40 1
     8    3    4 1
     9    4    9 ar
    10    4    5 ar
    11    5    6 ar
    12    5   41 1
    13    6    7 ar
    14    6   42 1
    15    7    8 ar
    16    7   43 1
    17    8    9 ar
    18    8   10 1
    19    9   44 1
    20   10   11 2
    21   10   12 am
    22   12   17 1
    23   12   13 1
    24   13   14 1
    25   13   45 1
    26   13   46 1
    27   14   15 1
    28   14   16 1
    29   14   23 1
    30   16   22 1
    31   16   17 1
    32   16   18 1
    33   17   47 1
    34   17   48 1
    35   18   19 1
    36   18   49 1
    37   18   50 1
    38   19   20 1
    39   19   51 1
    40   19   52 1
    41   20   21 1
    42   20   53 1
    43   20   71 1
    44   21   22 1
    45   21   54 1
    46   21   55 1
    47   22   56 1
    48   22   57 1
    49   23   24 2
    50   23   25 am
    51   25   26 1
    52   25   58 1
    53   26   27 1
    54   26   59 1
    55   26   60 1
    56   27   32 1
    57   27   28 1
    58   27   61 1
    59   28   29 1
    60   28   62 1
    61   28   63 1
    62   29   30 1
    63   29   64 1
    64   29   65 1
    65   30   31 1
    66   30   33 1
    67   30   66 1
    68   31   32 1
    69   31   67 1
    70   31   68 1
    71   32   69 1
    72   32   70 1
    73   33   34 2
    74   33   35 1
@<TRIPOS>MOLECULE
ZINC15972553
   61    67     0     0     0
SMALL
USER_CHARGES

@<TRIPOS>ATOM
      1 C1         -0.0165    1.3620    0.0095 C.ar      1 <0>        -0.1469
      2 C2          1.1697    2.0834    0.0021 C.ar      1 <0>        -0.1005
      3 C3          2.3856    1.4362   -0.0134 C.ar      1 <0>        -0.1312
      4 C4          2.4281    0.0456   -0.0212 C.ar      1 <0>         0.0932
      5 C5          1.2234   -0.6807   -0.0132 C.ar      1 <0>        -0.0855
      6 C6          0.0021   -0.0041    0.0020 C.ar      1 <0>        -0.0613
      7 C7          1.6036   -2.0953   -0.0245 C.2       1 <0>        -0.1654
      8 C8          2.9451   -2.1410   -0.0380 C.2       1 <0>         0.0598
      9 N1          3.4551   -0.8713   -0.0363 N.pl3     1 <0>        -0.5953
     10 H1          4.3995   -0.6501   -0.0442 H         1 <0>         0.4152
     11 C9          0.6664   -3.2754   -0.0210 C.3       1 <0>        -0.0402
     12 C10         0.2361   -3.5891   -1.4554 C.3       1 <0>         0.0941
     13 H2          1.1105   -3.7284   -2.0911 H         1 <0>         0.1141
     14 C11        -0.6560   -4.8488   -1.4853 C.3       1 <0>        -0.1590
     15 H3         -1.0919   -5.0784   -0.5130 H         1 <0>         0.1424
     16 C12        -1.7259   -4.5525   -2.5730 C.3       1 <0>        -0.1374
     17 H4         -2.7451   -4.6417   -2.1970 H         1 <0>         0.1460
     18 C13        -1.4152   -5.5641   -3.6525 C.2       1 <0>         0.5364
     19 O1         -2.0161   -5.6784   -4.6992 O.2       1 <0>        -0.4739
     20 N2         -0.3734   -6.3132   -3.2734 N.am      1 <0>        -0.5596
     21 C14         0.1352   -6.0030   -2.0582 C.2       1 <0>         0.5487
     22 O2          1.0696   -6.5505   -1.5134 O.2       1 <0>        -0.4512
     23 C15         0.1716   -7.3904   -4.1034 C.3       1 <0>         0.0891
     24 C16         1.2625   -6.8281   -5.0170 C.3       1 <0>         0.0702
     25 H5          0.8691   -5.9873   -5.5883 H         1 <0>         0.0876
     26 C17         1.7584   -7.9288   -5.9793 C.3       1 <0>        -0.1486
     27 C18         3.2869   -7.6583   -6.0297 C.3       1 <0>        -0.1545
     28 C19         3.5466   -7.1676   -4.5832 C.3       1 <0>         0.0494
     29 O3          2.3815   -6.4009   -4.2317 O.3       1 <0>        -0.3582
     30 C20        -1.4014   -3.1355   -3.0601 C.3       1 <0>         0.1281
     31 N3         -0.6227   -2.4984   -1.9882 N.3       1 <0>        -0.6052
     32 C21        -2.6497   -2.3656   -3.3860 C.ar      1 <0>        -0.1174
     33 C22        -3.7570   -2.0020   -2.6524 C.ar      1 <0>        -0.0889
     34 C23        -4.7732   -1.2722   -3.2474 C.ar      1 <0>         0.0794
     35 C24        -4.6709   -0.9104   -4.5804 C.ar      1 <0>        -0.1042
     36 C25        -3.5630   -1.2739   -5.3170 C.ar      1 <0>        -0.1103
     37 C26        -2.5371   -2.0074   -4.7259 C.ar      1 <0>         0.1610
     38 N4         -1.3351   -2.4862   -5.2544 N.am      1 <0>        -0.6535
     39 C27        -0.6114   -3.1603   -4.3398 C.2       1 <0>         0.5495
     40 O4          0.4680   -3.6851   -4.5143 O.2       1 <0>        -0.4637
     41 F1         -5.8607   -0.9150   -2.5298 F         1 <0>        -0.1325
     42 H6         -0.9613    1.8849    0.0259 H         1 <0>         0.1197
     43 H7          1.1388    3.1630    0.0081 H         1 <0>         0.1222
     44 H8          3.3028    2.0064   -0.0198 H         1 <0>         0.1165
     45 H9         -0.9246   -0.5587    0.0082 H         1 <0>         0.1144
     46 H10         3.5346   -3.0459   -0.0490 H         1 <0>         0.1680
     47 H11         1.1742   -4.1414    0.4036 H         1 <0>         0.0897
     48 H12        -0.2127   -3.0396    0.5787 H         1 <0>         0.0769
     49 H13         0.5967   -8.1630   -3.4628 H         1 <0>         0.0983
     50 H14        -0.6253   -7.8197   -4.7106 H         1 <0>         0.1014
     51 H15         1.5529   -8.9196   -5.5742 H         1 <0>         0.0801
     52 H16         1.3109   -7.8116   -6.9663 H         1 <0>         0.0849
     53 H17         3.8410   -8.5732   -6.2396 H         1 <0>         0.0844
     54 H18         3.5246   -6.8818   -6.7567 H         1 <0>         0.0786
     55 H19         3.6585   -8.0173   -3.9097 H         1 <0>         0.0599
     56 H20         4.4362   -6.5386   -4.5510 H         1 <0>         0.0838
     57 H21        -1.2373   -2.1398   -1.2728 H         1 <0>         0.3516
     58 H22        -3.8334   -2.2862   -1.6133 H         1 <0>         0.1427
     59 H23        -5.4625   -0.3413   -5.0452 H         1 <0>         0.1478
     60 H24        -3.4904   -0.9883   -6.3560 H         1 <0>         0.1409
     61 H25        -1.0549   -2.3496   -6.1729 H         1 <0>         0.4185
@<TRIPOS>BOND
     1    1    6 ar
     2    1    2 ar
     3    1   42 1
     4    2    3 ar
     5    2   43 1
     6    3    4 ar
     7    3   44 1
     8    4    9 1
     9    4    5 ar
    10    5    6 ar
    11    5    7 1
    12    6   45 1
    13    7    8 2
    14    7   11 1
    15    8    9 1
    16    8   46 1
    17    9   10 1
    18   11   12 1
    19   11   47 1
    20   11   48 1
    21   12   13 1
    22   12   31 1
    23   12   14 1
    24   14   15 1
    25   14   21 1
    26   14   16 1
    27   16   17 1
    28   16   18 1
    29   16   30 1
    30   18   19 2
    31   18   20 am
    32   20   21 am
    33   20   23 1
    34   21   22 2
    35   23   24 1
    36   23   49 1
    37   23   50 1
    38   24   25 1
    39   24   29 1
    40   24   26 1
    41   26   27 1
    42   26   51 1
    43   26   52 1
    44   27   28 1
    45   27   53 1
    46   27   54 1
    47   28   29 1
    48   28   55 1
    49   28   56 1
    50   30   39 1
    51   30   31 1
    52   30   32 1
    53   31   57 1
    54   32   37 ar
    55   32   33 ar
    56   33   34 ar
    57   33   58 1
    58   34   35 ar
    59   34   41 1
    60   35   36 ar
    61   35   59 1
    62   36   37 ar
    63   36   60 1
    64   37   38 1
    65   38   39 am
    66   38   61 1
    67   39   40 2
@<TRIPOS>MOLECULE
ZINC20113746
   50    53     0     0     0
SMALL
USER_CHARGES

@<TRIPOS>ATOM
      1 C1          1.9033    0.1868    2.6988 C.3       1 <0>         0.0251
      2 O1          2.0543   -1.2053    2.4137 O.3       1 <0>        -0.3031
      3 C2          2.0410   -1.5724    1.1043 C.ar      1 <0>         0.1125
      4 C3          1.8921   -0.6157    0.1154 C.ar      1 <0>        -0.1680
      5 C4          1.8769   -0.9860   -1.2204 C.ar      1 <0>        -0.0924
      6 C5          2.0088   -2.3136   -1.5704 C.ar      1 <0>        -0.0787
      7 C6          2.1607   -3.2757   -0.5827 C.ar      1 <0>        -0.1300
      8 C7          2.1828   -2.9111    0.7519 C.ar      1 <0>         0.1061
      9 O2          2.3374   -3.8580    1.7157 O.3       1 <0>        -0.3029
     10 C8          2.4771   -5.2115    1.2791 C.3       1 <0>         0.0249
     11 C9          1.9883   -2.7589   -3.0091 C.3       1 <0>         0.2099
     12 H1          1.0077   -3.1736   -3.2429 H         1 <0>         0.1475
     13 N1          2.2609   -1.6297   -3.9028 N.4       1 <0>        -0.5035
     14 C10         1.3190   -0.5412   -3.6001 C.3       1 <0>        -0.0021
     15 C11         1.7161    0.0894   -2.2648 C.3       1 <0>        -0.0951
     16 C12         3.0384   -3.8198   -3.2159 C.2       1 <0>        -0.5303
     17 C13         4.4024   -3.5119   -3.0651 C.2       1 <0>         0.5730
     18 N2          5.3263   -4.4746   -3.2544 N.am      1 <0>        -0.6658
     19 H2          6.2677   -4.2653   -3.1508 H         1 <0>         0.4263
     20 C14         4.9528   -5.7242   -3.5855 C.2       1 <0>         0.7058
     21 O3          5.8015   -6.5787   -3.7520 O.2       1 <0>        -0.5392
     22 N3          3.6538   -6.0421   -3.7348 N.am      1 <0>        -0.5113
     23 C15         2.6793   -5.0925   -3.5461 C.2       1 <0>         0.5245
     24 O4          1.3766   -5.4161   -3.6910 O.3       1 <0>        -0.6290
     25 C16         3.2926   -7.3516   -4.0797 C.ar      1 <0>         0.1685
     26 C17         3.0500   -8.2906   -3.0861 C.ar      1 <0>        -0.0904
     27 C18         2.6943   -9.5804   -3.4287 C.ar      1 <0>        -0.0809
     28 C19         2.5795   -9.9371   -4.7606 C.ar      1 <0>        -0.0830
     29 C20         2.8210   -9.0033   -5.7526 C.ar      1 <0>        -0.0815
     30 C21         3.1711   -7.7105   -5.4154 C.ar      1 <0>        -0.0900
     31 Br1         2.0921  -11.7039   -5.2260 Br        1 <0>        -0.0454
     32 O5          4.7467   -2.3816   -2.7657 O.2       1 <0>        -0.5766
     33 H3          2.7148    0.7436    2.2303 H         1 <0>         0.0556
     34 H4          0.9486    0.5366    2.3062 H         1 <0>         0.0556
     35 H5          1.9315    0.3419    3.7773 H         1 <0>         0.1028
     36 H6          1.7869    0.4246    0.3858 H         1 <0>         0.1386
     37 H7          2.2667   -4.3148   -0.8572 H         1 <0>         0.1419
     38 H8          1.5897   -5.5060    0.7189 H         1 <0>         0.0584
     39 H9          3.3557   -5.2981    0.6397 H         1 <0>         0.0537
     40 H10         2.5926   -5.8627    2.1455 H         1 <0>         0.1041
     41 H11         3.2064   -1.3073   -3.7607 H         1 <0>         0.4301
     42 H12         1.3636    0.2109   -4.3877 H         1 <0>         0.1291
     43 H13         0.3076   -0.9415   -3.5295 H         1 <0>         0.1282
     44 H14         0.9413    0.7881   -1.9493 H         1 <0>         0.1121
     45 H15         2.6587    0.6241   -2.3825 H         1 <0>         0.0977
     46 H16         3.1399   -8.0128   -2.0463 H         1 <0>         0.1315
     47 H17         2.5059  -10.3113   -2.6563 H         1 <0>         0.1399
     48 H18         2.7311   -9.2843   -6.7916 H         1 <0>         0.1398
     49 H19         3.3545   -6.9807   -6.1900 H         1 <0>         0.1321
     50 H20         2.1427   -1.9216   -4.8614 H         1 <0>         0.4237
@<TRIPOS>BOND
     1    1    2 1
     2    1   33 1
     3    1   34 1
     4    1   35 1
     5    2    3 1
     6    3    8 ar
     7    3    4 ar
     8    4    5 ar
     9    4   36 1
    10    5   15 1
    11    5    6 ar
    12    6    7 ar
    13    6   11 1
    14    7    8 ar
    15    7   37 1
    16    8    9 1
    17    9   10 1
    18   10   38 1
    19   10   39 1
    20   10   40 1
    21   11   12 1
    22   11   13 1
    23   11   16 1
    24   13   14 1
    25   13   41 1
    26   13   50 1
    27   14   15 1
    28   14   42 1
    29   14   43 1
    30   15   44 1
    31   15   45 1
    32   16   23 2
    33   16   17 1
    34   17   32 2
    35   17   18 am
    36   18   19 1
    37   18   20 am
    38   20   21 2
    39   20   22 am
    40   22   23 1
    41   22   25 1
    42   23   24 1
    43   25   30 ar
    44   25   26 ar
    45   26   27 ar
    46   26   46 1
    47   27   28 ar
    48   27   47 1
    49   28   29 ar
    50   28   31 1
    51   29   30 ar
    52   29   48 1
    53   30   49 1
@<TRIPOS>MOLECULE
ZINC12296954
   56    60     0     0     0
SMALL
USER_CHARGES
N-[2-[2-(5-chloro-1H-indol-3-yl)ethylamino]-2-oxo-ethyl]-1,3,4,9-tetrahydropyrido[3,4-b]indole-2-carboxamide
@<TRIPOS>ATOM
      1 C1          3.3177    3.1176   -0.0135 C.ar      1 <0>        -0.1498
      2 C2          4.0961    1.9716   -0.0182 C.ar      1 <0>        -0.0975
      3 C3          3.5430    0.7029   -0.0148 C.ar      1 <0>        -0.1322
      4 C4          2.1520    0.6211   -0.0060 C.ar      1 <0>         0.1028
      5 C5          1.3598    1.7978    0.0001 C.ar      1 <0>        -0.1039
      6 C6          1.9456    3.0674   -0.0049 C.ar      1 <0>        -0.0647
      7 C7         -0.0191    1.3524    0.0100 C.2       1 <0>        -0.1484
      8 C8          0.0030    0.0020    0.0063 C.2       1 <0>         0.0443
      9 N1          1.2978   -0.4438   -0.0015 N.pl3     1 <0>        -0.5805
     10 H1          1.5673   -1.3756   -0.0038 H         1 <0>         0.4167
     11 C9         -1.2447   -0.8528    0.0057 C.3       1 <0>         0.1794
     12 N2         -2.3875    0.0318    0.2897 N.am      1 <0>        -0.6219
     13 C10        -2.4586    1.3246   -0.4078 C.3       1 <0>         0.1295
     14 C11        -1.2711    2.1915    0.0278 C.3       1 <0>        -0.0626
     15 C12        -3.3439   -0.3342    1.1660 C.2       1 <0>         0.7177
     16 O1         -4.2291    0.4455    1.4607 O.2       1 <0>        -0.5814
     17 N3         -3.3189   -1.5645    1.7157 N.am      1 <0>        -0.7369
     18 C13        -4.4158   -2.0017    2.5830 C.3       1 <0>         0.1184
     19 C14        -4.1474   -3.4044    3.0639 C.2       1 <0>         0.5103
     20 O2         -3.1392   -3.9821    2.7164 O.2       1 <0>        -0.5373
     21 N4         -5.0277   -4.0170    3.8801 N.am      1 <0>        -0.7253
     22 C15        -4.7668   -5.3807    4.3477 C.3       1 <0>         0.1237
     23 C16        -5.9123   -5.8372    5.2534 C.3       1 <0>        -0.0547
     24 C17        -5.6439   -7.2400    5.7343 C.2       1 <0>        -0.1702
     25 C18        -6.1016   -8.3746    5.1821 C.2       1 <0>         0.0690
     26 N5         -5.6509   -9.4539    5.8919 N.pl3     1 <0>        -0.5915
     27 H2         -5.8500  -10.3802    5.6840 H         1 <0>         0.4200
     28 C19        -4.8718   -9.0291    6.9457 C.ar      1 <0>         0.0991
     29 C20        -4.8288   -7.6241    6.8893 C.ar      1 <0>        -0.0903
     30 C21        -4.1082   -6.9097    7.8483 C.ar      1 <0>        -0.0608
     31 C22        -3.4341   -7.5886    8.8393 C.ar      1 <0>        -0.0579
     32 C23        -3.4725   -8.9761    8.8907 C.ar      1 <0>        -0.0898
     33 C24        -4.1836   -9.6943    7.9546 C.ar      1 <0>        -0.1148
     34 Cl1        -2.5311   -6.7053   10.0301 Cl        1 <0>        -0.0705
     35 H3          3.8056    4.0811   -0.0172 H         1 <0>         0.1190
     36 H4          5.1715    2.0717   -0.0250 H         1 <0>         0.1216
     37 H5          4.1609   -0.1828   -0.0185 H         1 <0>         0.1279
     38 H6          1.3469    3.9663   -0.0020 H         1 <0>         0.1296
     39 H7         -1.3723   -1.3208   -0.9704 H         1 <0>         0.0904
     40 H8         -1.1689   -1.6190    0.7773 H         1 <0>         0.0914
     41 H9         -2.4157    1.1611   -1.4846 H         1 <0>         0.0750
     42 H10        -3.3918    1.8264   -0.1520 H         1 <0>         0.1031
     43 H11        -1.4439    2.5675    1.0362 H         1 <0>         0.0774
     44 H12        -1.1589    3.0288   -0.6611 H         1 <0>         0.0860
     45 H13        -2.5748   -2.1605    1.5371 H         1 <0>         0.4062
     46 H14        -4.4906   -1.3319    3.4397 H         1 <0>         0.1015
     47 H15        -5.3511   -1.9820    2.0237 H         1 <0>         0.1008
     48 H16        -5.8340   -3.5549    4.1581 H         1 <0>         0.4055
     49 H17        -4.6920   -6.0504    3.4909 H         1 <0>         0.0706
     50 H18        -3.8314   -5.4003    4.9069 H         1 <0>         0.0714
     51 H19        -5.9871   -5.1675    6.1101 H         1 <0>         0.0799
     52 H20        -6.8476   -5.8176    4.6941 H         1 <0>         0.0803
     53 H21        -6.7324   -8.4277    4.3070 H         1 <0>         0.1744
     54 H22        -4.0758   -5.8308    7.8107 H         1 <0>         0.1325
     55 H23        -2.9393   -9.4971    9.6721 H         1 <0>         0.1373
     56 H24        -4.2069  -10.7729    8.0044 H         1 <0>         0.1307
@<TRIPOS>BOND
     1    1    6 ar
     2    1    2 ar
     3    1   35 1
     4    2    3 ar
     5    2   36 1
     6    3    4 ar
     7    3   37 1
     8    4    9 1
     9    4    5 ar
    10    5    6 ar
    11    5    7 1
    12    6   38 1
    13    7   14 1
    14    7    8 2
    15    8    9 1
    16    8   11 1
    17    9   10 1
    18   11   12 1
    19   11   39 1
    20   11   40 1
    21   12   13 1
    22   12   15 am
    23   13   14 1
    24   13   41 1
    25   13   42 1
    26   14   43 1
    27   14   44 1
    28   15   16 2
    29   15   17 am
    30   17   18 1
    31   17   45 1
    32   18   19 1
    33   18   46 1
    34   18   47 1
    35   19   20 2
    36   19   21 am
    37   21   22 1
    38   21   48 1
    39   22   23 1
    40   22   49 1
    41   22   50 1
    42   23   24 1
    43   23   51 1
    44   23   52 1
    45   24   29 1
    46   24   25 2
    47   25   26 1
    48   25   53 1
    49   26   27 1
    50   26   28 1
    51   28   33 ar
    52   28   29 ar
    53   29   30 ar
    54   30   31 ar
    55   30   54 1
    56   31   32 ar
    57   31   34 1
    58   32   33 ar
    59   32   55 1
    60   33   56 1
@<TRIPOS>MOLECULE
ZINC21332064
   46    47     0     0     0
SMALL
USER_CHARGES
[2-[[(1R,2R)-2-methylcyclohexyl]carbamoylamino]-2-oxo-ethyl] 4-amino-3,5,6-trichloro-pyridine-2-carboxylate
@<TRIPOS>ATOM
      1 C1         -1.4333   -0.5336    0.0129 C.3       1 <0>        -0.1490
      2 C2          0.0021   -0.0041    0.0020 C.3       1 <0>        -0.0948
      3 H1          0.5342   -0.3686    0.8931 H         1 <0>         0.0769
      4 C3         -0.0187    1.5258    0.0104 C.3       1 <0>        -0.1134
      5 C4          1.4167    2.0553   -0.0004 C.3       1 <0>        -0.1229
      6 C5          2.1328    1.5619   -1.2592 C.3       1 <0>        -0.1189
      7 C6          2.1536    0.0321   -1.2676 C.3       1 <0>        -0.1304
      8 C7          0.7182   -0.4975   -1.2568 C.3       1 <0>         0.1698
      9 H2          0.1796   -0.1756   -2.1603 H         1 <0>         0.0895
     10 N1          0.7381   -1.9623   -1.2648 N.am      1 <0>        -0.7436
     11 C8          0.8378   -2.6285   -2.4322 C.2       1 <0>         0.6990
     12 O1          0.9113   -2.0140   -3.4782 O.2       1 <0>        -0.5312
     13 N2          0.8561   -3.9761   -2.4396 N.am      1 <0>        -0.7025
     14 C9          0.9559   -4.6423   -3.6070 C.2       1 <0>         0.5185
     15 O2          1.0291   -4.0293   -4.6504 O.2       1 <0>        -0.4377
     16 C10         0.9763   -6.1491   -3.6153 C.3       1 <0>         0.0474
     17 O3          1.0891   -6.6241   -4.9827 O.3       1 <0>        -0.3036
     18 C11         1.1209   -7.9582   -5.1660 C.2       1 <0>         0.5264
     19 O4          1.0562   -8.7043   -4.2099 O.2       1 <0>        -0.4671
     20 C12         1.2347   -8.5146   -6.5319 C.ar      1 <0>         0.1683
     21 C13         1.2670   -9.8945   -6.7139 C.ar      1 <0>        -0.1120
     22 C14         1.3747  -10.4032   -8.0089 C.ar      1 <0>         0.2942
     23 C15         1.4456   -9.5023   -9.0699 C.ar      1 <0>        -0.1385
     24 C16         1.4072   -8.1418   -8.8074 C.ar      1 <0>         0.2286
     25 N3          1.2997   -7.6923   -7.5746 N.ar      1 <0>        -0.4439
     26 Cl1         1.4945   -7.0141  -10.1243 Cl        1 <0>         0.0147
     27 Cl2         1.5798  -10.0777  -10.7023 Cl        1 <0>        -0.0148
     28 N4          1.4099  -11.7776   -8.2356 N.pl3     1 <0>        -0.8574
     29 Cl3         1.1754  -10.9657   -5.3509 Cl        1 <0>         0.0026
     30 H3         -1.9481   -0.1788    0.9180 H         1 <0>         0.0581
     31 H4         -1.4184   -1.6335    0.0068 H         1 <0>         0.0555
     32 H5         -1.9653   -0.1692   -0.8782 H         1 <0>         0.0564
     33 H6         -0.5507    1.8901   -0.8808 H         1 <0>         0.0664
     34 H7         -0.5336    1.8806    0.9154 H         1 <0>         0.0687
     35 H8          1.4018    3.1552    0.0057 H         1 <0>         0.0651
     36 H9          1.9487    1.6909    0.8908 H         1 <0>         0.0629
     37 H10         1.6007    1.9263   -2.1503 H         1 <0>         0.0654
     38 H11         3.1648    1.9427   -1.2671 H         1 <0>         0.0657
     39 H12         2.6685   -0.3226   -2.1726 H         1 <0>         0.0681
     40 H13         2.6856   -0.3323   -0.3764 H         1 <0>         0.0641
     41 H14         0.6717   -2.5184   -0.3181 H         1 <0>         0.4144
     42 H15         0.7896   -4.5323   -1.4929 H         1 <0>         0.4339
     43 H16         1.8364   -6.5074   -3.0306 H         1 <0>         0.1133
     44 H17         0.0457   -6.5309   -3.1701 H         1 <0>         0.1133
     45 H18         1.4951  -12.1637   -9.2621 H         1 <0>         0.4374
     46 H19         1.3525  -12.4765   -7.3881 H         1 <0>         0.4370
@<TRIPOS>BOND
     1    1    2 1
     2    1   30 1
     3    1   31 1
     4    1   32 1
     5    2    3 1
     6    2    8 1
     7    2    4 1
     8    4    5 1
     9    4   33 1
    10    4   34 1
    11    5    6 1
    12    5   35 1
    13    5   36 1
    14    6    7 1
    15    6   37 1
    16    6   38 1
    17    7    8 1
    18    7   39 1
    19    7   40 1
    20    8    9 1
    21    8   10 1
    22   10   11 am
    23   10   41 1
    24   11   12 2
    25   11   13 am
    26   13   14 am
    27   13   42 1
    28   14   15 2
    29   14   16 1
    30   16   17 1
    31   16   43 1
    32   16   44 1
    33   17   18 1
    34   18   19 2
    35   18   20 1
    36   20   25 ar
    37   20   21 ar
    38   21   22 ar
    39   21   29 1
    40   22   23 ar
    41   22   28 1
    42   23   24 ar
    43   23   27 1
    44   24   25 ar
    45   24   26 1
    46   28   45 1
    47   28   46 1
@<TRIPOS>MOLECULE
ZINC38556214
   57    61     0     0     0
SMALL
USER_CHARGES

@<TRIPOS>ATOM
      1 C1         -0.0167    1.3792    0.0096 C.ar      1 <0>        -0.1122
      2 C2          1.1686    2.0925    0.0021 C.ar      1 <0>        -0.1184
      3 C3          2.3774    1.4271   -0.0129 C.ar      1 <0>        -0.1046
      4 C4          2.4026    0.0331   -0.0206 C.ar      1 <0>        -0.0587
      5 C5          1.2048   -0.6804   -0.0130 C.ar      1 <0>        -0.1047
      6 C6          0.0021   -0.0041    0.0020 C.ar      1 <0>        -0.1190
      7 C7          3.6979   -0.6876   -0.0373 C.ar      1 <0>        -0.0071
      8 C8          4.8947    0.0304   -0.0395 C.ar      1 <0>        -0.1245
      9 C9          6.0939   -0.6339   -0.0545 C.ar      1 <0>        -0.0524
     10 C10         6.1173   -2.0337   -0.0675 C.ar      1 <0>        -0.1643
     11 C11         4.9154   -2.7517   -0.0653 C.ar      1 <0>        -0.0651
     12 C12         3.7187   -2.0831   -0.0449 C.ar      1 <0>        -0.1254
     13 C13         7.4017   -2.7483   -0.0841 C.2       1 <0>         0.4107
     14 O1          8.4422   -2.1253   -0.0864 O.2       1 <0>        -0.4345
     15 C14         7.4255   -4.2551   -0.0981 C.3       1 <0>        -0.1384
     16 S1          9.1451   -4.8325   -0.1168 S.3       1 <0>        -0.0965
     17 C15         9.0007   -6.6406   -0.1323 C.3       1 <0>         0.1809
     18 H1          9.9918   -7.0943   -0.1316 H         1 <0>         0.1147
     19 N1          8.2321   -7.0985    1.0475 N.3       1 <0>        -0.4834
     20 N2          6.8534   -7.2435    0.5546 N.3       1 <0>        -0.4770
     21 C16         7.0425   -7.7831   -0.8175 C.3       1 <0>         0.2241
     22 H2          7.2176   -8.8584   -0.7837 H         1 <0>         0.0574
     23 N3          8.2442   -7.0781   -1.3239 N.3       1 <0>        -0.3186
     24 N4          9.0495   -7.9538   -2.1598 N.3       1 <0>        -0.6484
     25 C17         5.8257   -7.4672   -1.6894 C.3       1 <0>        -0.0003
     26 H3          5.7186   -6.3907   -1.8230 H         1 <0>         0.1600
     27 C18         4.5651   -8.0605   -1.0859 C.2       1 <0>        -0.1573
     28 C19         4.1360   -8.9278   -2.0230 C.2       1 <0>         0.0144
     29 N5          4.9738   -8.9228   -3.0929 N.2       1 <0>        -0.1638
     30 N6          5.9297   -8.1449   -2.9923 N.2       1 <0>        -0.1102
     31 C20         2.9205   -9.7703   -1.9036 C.ar      1 <0>        -0.0361
     32 C21         2.1260   -9.6937   -0.7612 C.ar      1 <0>        -0.1016
     33 C22         0.9963  -10.4793   -0.6557 C.ar      1 <0>        -0.1206
     34 C23         0.6520  -11.3416   -1.6811 C.ar      1 <0>        -0.1076
     35 C24         1.4370  -11.4217   -2.8172 C.ar      1 <0>        -0.1205
     36 C25         2.5660  -10.6368   -2.9357 C.ar      1 <0>        -0.0862
     37 H4         -0.9603    1.9042    0.0260 H         1 <0>         0.1248
     38 H5          1.1478    3.1723    0.0077 H         1 <0>         0.1265
     39 H6          3.3021    1.9850   -0.0191 H         1 <0>         0.1273
     40 H7          1.2182   -1.7603   -0.0193 H         1 <0>         0.1265
     41 H8         -0.9264   -0.5557    0.0079 H         1 <0>         0.1261
     42 H9          4.8762    1.1102   -0.0298 H         1 <0>         0.1334
     43 H10         7.0197   -0.0779   -0.0565 H         1 <0>         0.1376
     44 H11         4.9310   -3.8316   -0.0757 H         1 <0>         0.1340
     45 H12         2.7914   -2.6366   -0.0387 H         1 <0>         0.1323
     46 H13         6.9244   -4.6347    0.7923 H         1 <0>         0.1304
     47 H14         6.9106   -4.6183   -0.9875 H         1 <0>         0.1156
     48 H15         8.5875   -7.9780    1.3915 H         1 <0>         0.3213
     49 H16         6.3304   -7.8885    1.1278 H         1 <0>         0.3581
     50 H17         9.8849   -7.4842   -2.4759 H         1 <0>         0.3692
     51 H18         9.2769   -8.8086   -1.6744 H         1 <0>         0.3165
     52 H19         4.1172   -7.8392   -0.1284 H         1 <0>         0.1752
     53 H20         2.3941   -9.0210    0.0401 H         1 <0>         0.1234
     54 H21         0.3800  -10.4210    0.2293 H         1 <0>         0.1277
     55 H22        -0.2327  -11.9548   -1.5941 H         1 <0>         0.1261
     56 H23         1.1638  -12.0968   -3.6146 H         1 <0>         0.1285
     57 H24         3.1758  -10.6969   -3.8251 H         1 <0>         0.1346
@<TRIPOS>BOND
     1    1    6 ar
     2    1    2 ar
     3    1   37 1
     4    2    3 ar
     5    2   38 1
     6    3    4 ar
     7    3   39 1
     8    4    5 ar
     9    4    7 1
    10    5    6 ar
    11    5   40 1
    12    6   41 1
    13    7   12 ar
    14    7    8 ar
    15    8    9 ar
    16    8   42 1
    17    9   10 ar
    18    9   43 1
    19   10   11 ar
    20   10   13 1
    21   11   12 ar
    22   11   44 1
    23   12   45 1
    24   13   14 2
    25   13   15 1
    26   15   16 1
    27   15   46 1
    28   15   47 1
    29   16   17 1
    30   17   18 1
    31   17   23 1
    32   17   19 1
    33   19   20 1
    34   19   48 1
    35   20   21 1
    36   20   49 1
    37   21   22 1
    38   21   23 1
    39   21   25 1
    40   23   24 1
    41   24   50 1
    42   24   51 1
    43   25   26 1
    44   25   30 1
    45   25   27 1
    46   27   28 2
    47   27   52 1
    48   28   29 1
    49   28   31 1
    50   29   30 2
    51   31   36 ar
    52   31   32 ar
    53   32   33 ar
    54   32   53 1
    55   33   34 ar
    56   33   54 1
    57   34   35 ar
    58   34   55 1
    59   35   36 ar
    60   35   56 1
    61   36   57 1
@<TRIPOS>MOLECULE
ZINC48552347
   42    43     0     0     0
SMALL
USER_CHARGES

@<TRIPOS>ATOM
      1 C1         -0.0840    1.3585    0.3218 C.ar      1 <0>        -0.1010
      2 C2          0.9872    2.0626   -0.1956 C.ar      1 <0>        -0.1176
      3 C3          2.2186    1.4488   -0.3282 C.ar      1 <0>        -0.0926
      4 C4          2.3790    0.1309    0.0569 C.ar      1 <0>        -0.0966
      5 C5          1.3081   -0.5730    0.5752 C.ar      1 <0>        -0.0847
      6 C6          0.0763    0.0405    0.7065 C.ar      1 <0>        -0.1212
      7 C7          3.7212   -0.5386   -0.0886 C.3       1 <0>         0.1167
      8 H1          4.4356    0.1676   -0.5116 H         1 <0>         0.1567
      9 C8          4.1940   -0.9826    1.2328 C.1       1 <0>         0.1841
     10 N1          4.5588   -1.3252    2.2526 N.1       1 <0>        -0.3706
     11 C9          3.5918   -1.7302   -1.0022 C.2       1 <0>         0.0693
     12 N2          2.4210   -2.0866   -1.4450 N.2       1 <0>        -0.1641
     13 N3          2.3161   -3.0812   -2.4261 N.pl3     1 <0>        -0.5228
     14 C10         1.1250   -3.3354   -3.0033 C.2       1 <0>         0.5898
     15 S1          0.9968   -4.5508   -4.2022 S.2       1 <0>        -0.5800
     16 N4          0.0348   -2.6329   -2.6366 N.pl3     1 <0>        -0.7833
     17 C11         4.7844   -2.4876   -1.3920 C.2       1 <0>         0.5422
     18 O1          4.7036   -3.3544   -2.2423 O.2       1 <0>        -0.5029
     19 N5          5.9705   -2.2241   -0.8088 N.am      1 <0>        -0.6423
     20 C12         7.0735   -3.0438   -1.0662 C.ar      1 <0>         0.1316
     21 C13         7.1203   -3.8032   -2.2286 C.ar      1 <0>        -0.1026
     22 C14         8.2113   -4.6114   -2.4800 C.ar      1 <0>        -0.0957
     23 C15         9.2566   -4.6657   -1.5759 C.ar      1 <0>        -0.0809
     24 C16         9.2132   -3.9112   -0.4181 C.ar      1 <0>        -0.1607
     25 C17         8.1274   -3.0963   -0.1633 C.ar      1 <0>        -0.0935
     26 C18        10.3541   -3.9740    0.5644 C.3       1 <0>         0.5097
     27 F1         11.3307   -4.8559    0.0892 F         1 <0>        -0.1733
     28 F2         10.9105   -2.6992    0.7150 F         1 <0>        -0.1747
     29 F3          9.8804   -4.4251    1.8010 F         1 <0>        -0.1743
     30 H2         -1.0450    1.8395    0.4296 H         1 <0>         0.1274
     31 H3          0.8618    3.0923   -0.4965 H         1 <0>         0.1299
     32 H4          3.0553    1.9987   -0.7331 H         1 <0>         0.1317
     33 H5          1.4333   -1.6027    0.8757 H         1 <0>         0.1196
     34 H6         -0.7605   -0.5096    1.1110 H         1 <0>         0.1276
     35 H7          3.1007   -3.5868   -2.6900 H         1 <0>         0.4418
     36 H8          0.1074   -1.9443   -1.9573 H         1 <0>         0.4076
     37 H9         -0.8224   -2.8159   -3.0520 H         1 <0>         0.4340
     38 H10         6.0590   -1.4657   -0.2105 H         1 <0>         0.4171
     39 H11         6.3041   -3.7618   -2.9346 H         1 <0>         0.1710
     40 H12         8.2483   -5.2020   -3.3834 H         1 <0>         0.1451
     41 H13        10.1084   -5.2992   -1.7746 H         1 <0>         0.1440
     42 H14         8.0959   -2.5041    0.7393 H         1 <0>         0.1387
@<TRIPOS>BOND
     1    1    6 ar
     2    1    2 ar
     3    1   30 1
     4    2    3 ar
     5    2   31 1
     6    3    4 ar
     7    3   32 1
     8    4    5 ar
     9    4    7 1
    10    5    6 ar
    11    5   33 1
    12    6   34 1
    13    7    8 1
    14    7    9 1
    15    7   11 1
    16    9   10 3
    17   11   12 2
    18   11   17 1
    19   12   13 1
    20   13   14 1
    21   13   35 1
    22   14   15 2
    23   14   16 1
    24   16   36 1
    25   16   37 1
    26   17   18 2
    27   17   19 am
    28   19   20 1
    29   19   38 1
    30   20   25 ar
    31   20   21 ar
    32   21   22 ar
    33   21   39 1
    34   22   23 ar
    35   22   40 1
    36   23   24 ar
    37   23   41 1
    38   24   25 ar
    39   24   26 1
    40   25   42 1
    41   26   27 1
    42   26   28 1
    43   26   29 1
@<TRIPOS>MOLECULE
ZINC65315516
   61    63     0     0     0
SMALL
USER_CHARGES

@<TRIPOS>ATOM
      1 C1          5.4680   -1.6420   -2.1181 C.3       1 <0>        -0.1144
      2 C2          4.2858   -2.4535   -1.6543 C.ar      1 <0>        -0.1008
      3 C3          4.4852   -3.6888   -1.0658 C.ar      1 <0>        -0.1002
      4 C4          3.4039   -4.4350   -0.6397 C.ar      1 <0>        -0.1143
      5 C5          2.1154   -3.9434   -0.8028 C.ar      1 <0>         0.1555
      6 C6          1.9185   -2.7025   -1.3942 C.ar      1 <0>        -0.1414
      7 C7          3.0044   -1.9587   -1.8131 C.ar      1 <0>        -0.1009
      8 N1          1.0177   -4.6971   -0.3726 N.am      1 <0>        -0.6824
      9 C8          1.1209   -5.4719    0.7253 C.2       1 <0>         0.7033
     10 O1          2.1294   -5.4340    1.4035 O.2       1 <0>        -0.5526
     11 N2          0.1063   -6.2888    1.0715 N.am      1 <0>        -0.6811
     12 C9          0.1600   -7.0004    2.2774 C.ar      1 <0>         0.1457
     13 C10         0.7687   -6.4356    3.3903 C.ar      1 <0>        -0.0962
     14 C11         0.8212   -7.1365    4.5786 C.ar      1 <0>        -0.1257
     15 C12         0.2653   -8.4063    4.6608 C.ar      1 <0>         0.1506
     16 C13        -0.3430   -8.9713    3.5478 C.ar      1 <0>        -0.0985
     17 C14        -0.4005   -8.2680    2.3611 C.ar      1 <0>        -0.1229
     18 N3          0.3186   -9.1177    5.8669 N.am      1 <0>        -0.6844
     19 C15         0.4306  -10.4608    5.8527 C.2       1 <0>         0.7096
     20 O2          0.6138  -11.0445    4.8019 O.2       1 <0>        -0.5693
     21 N4          0.3397  -11.1568    7.0032 N.am      1 <0>        -0.6234
     22 C16        -0.0065  -10.4814    8.2613 C.3       1 <0>         0.1053
     23 C17        -1.2025  -11.2000    8.8938 C.3       1 <0>        -0.1346
     24 C18        -0.8758  -12.6872    9.0479 C.3       1 <0>        -0.1005
     25 C19        -0.6178  -13.3001    7.6695 C.3       1 <0>        -0.1226
     26 H1         -1.4976  -13.1644    7.0406 H         1 <0>         0.1035
     27 C20         0.5789  -12.6063    7.0221 C.3       1 <0>         0.1398
     28 C21        -0.3288  -14.7715    7.8195 C.2       1 <0>         0.5210
     29 O3         -0.3290  -15.2804    8.9203 O.2       1 <0>        -0.5328
     30 N5         -0.0700  -15.5218    6.7302 N.am      1 <0>        -0.7273
     31 C22         0.2109  -16.9522    6.8759 C.3       1 <0>         0.1457
     32 C23         0.4649  -17.5551    5.5183 C.2       1 <0>        -0.1823
     33 C24         1.5751  -18.2122    5.2907 C.2       1 <0>        -0.1603
     34 H2          5.8102   -1.0014   -1.3053 H         1 <0>         0.0701
     35 H3          6.2741   -2.3122   -2.4166 H         1 <0>         0.0663
     36 H4          5.1746   -1.0255   -2.9677 H         1 <0>         0.0660
     37 H5          5.4875   -4.0708   -0.9395 H         1 <0>         0.1256
     38 H6          3.5602   -5.3999   -0.1804 H         1 <0>         0.1345
     39 H7          0.9177   -2.3176   -1.5229 H         1 <0>         0.1253
     40 H8          2.8522   -0.9915   -2.2688 H         1 <0>         0.1265
     41 H9          0.1824   -4.6619   -0.8646 H         1 <0>         0.4082
     42 H10        -0.6611   -6.3840    0.4859 H         1 <0>         0.4084
     43 H11         1.2014   -5.4481    3.3263 H         1 <0>         0.1387
     44 H12         1.2949   -6.6974    5.4441 H         1 <0>         0.1290
     45 H13        -0.7747   -9.9591    3.6115 H         1 <0>         0.1390
     46 H14        -0.8776   -8.7056    1.4966 H         1 <0>         0.1292
     47 H15         0.2748   -8.6436    6.7120 H         1 <0>         0.4067
     48 H16         0.8440  -10.5188    8.9421 H         1 <0>         0.0769
     49 H17        -0.2695   -9.4433    8.0584 H         1 <0>         0.0800
     50 H18        -1.4090  -10.7694    9.8736 H         1 <0>         0.0849
     51 H19        -2.0768  -11.0841    8.2533 H         1 <0>         0.0704
     52 H20         0.0132  -12.8013    9.6682 H         1 <0>         0.0750
     53 H21        -1.7158  -13.1964    9.5203 H         1 <0>         0.0776
     54 H22         0.7020  -12.9697    6.0019 H         1 <0>         0.1004
     55 H23         1.4781  -12.8208    7.5996 H         1 <0>         0.0743
     56 H24        -0.0699  -15.1147    5.8497 H         1 <0>         0.4039
     57 H25         1.0915  -17.0874    7.5040 H         1 <0>         0.0729
     58 H26        -0.6442  -17.4452    7.3382 H         1 <0>         0.0769
     59 H27        -0.2684  -17.4455    4.7330 H         1 <0>         0.1163
     60 H28         1.7571  -18.6443    4.3178 H         1 <0>         0.1050
     61 H29         2.3084  -18.3218    6.0760 H         1 <0>         0.1009
@<TRIPOS>BOND
     1    1    2 1
     2    1   34 1
     3    1   35 1
     4    1   36 1
     5    2    7 ar
     6    2    3 ar
     7    3    4 ar
     8    3   37 1
     9    4    5 ar
    10    4   38 1
    11    5    6 ar
    12    5    8 1
    13    6    7 ar
    14    6   39 1
    15    7   40 1
    16    8    9 am
    17    8   41 1
    18    9   10 2
    19    9   11 am
    20   11   12 1
    21   11   42 1
    22   12   17 ar
    23   12   13 ar
    24   13   14 ar
    25   13   43 1
    26   14   15 ar
    27   14   44 1
    28   15   16 ar
    29   15   18 1
    30   16   17 ar
    31   16   45 1
    32   17   46 1
    33   18   19 am
    34   18   47 1
    35   19   20 2
    36   19   21 am
    37   21   27 1
    38   21   22 1
    39   22   23 1
    40   22   48 1
    41   22   49 1
    42   23   24 1
    43   23   50 1
    44   23   51 1
    45   24   25 1
    46   24   52 1
    47   24   53 1
    48   25   26 1
    49   25   27 1
    50   25   28 1
    51   27   54 1
    52   27   55 1
    53   28   29 2
    54   28   30 am
    55   30   31 1
    56   30   56 1
    57   31   32 1
    58   31   57 1
    59   31   58 1
    60   32   33 2
    61   32   59 1
    62   33   60 1
    63   33   61 1
@<TRIPOS>MOLECULE
ZINC16252342
   44    45     0     0     0
SMALL
USER_CHARGES
[2-[(2,3-dimethylphenyl)carbamoylamino]-2-oxo-ethyl] 2-amino-5-chloro-benzoate
@<TRIPOS>ATOM
      1 C1          7.2072   14.8035    2.3235 C.3       1 <0>        -0.1163
      2 C2          6.1715   14.0246    1.5544 C.ar      1 <0>        -0.0700
      3 C3          5.0416   14.6628    1.0761 C.ar      1 <0>        -0.1275
      4 C4          4.0888   13.9516    0.3704 C.ar      1 <0>        -0.1017
      5 C5          4.2630   12.6007    0.1406 C.ar      1 <0>        -0.1200
      6 C6          5.3964   11.9571    0.6191 C.ar      1 <0>         0.1556
      7 C7          6.3490   12.6732    1.3326 C.ar      1 <0>        -0.1101
      8 C8          7.5774   11.9772    1.8595 C.3       1 <0>        -0.1167
      9 N1          5.5759   10.5887    0.3880 N.am      1 <0>        -0.6738
     10 C9          4.5108    9.7632    0.3684 C.2       1 <0>         0.6965
     11 O1          3.3881   10.2171    0.4728 O.2       1 <0>        -0.5055
     12 N2          4.6905    8.4344    0.2329 N.am      1 <0>        -0.6858
     13 C10         3.6253    7.6088    0.2133 C.2       1 <0>         0.5183
     14 O2          2.5055    8.0616    0.3175 O.2       1 <0>        -0.4342
     15 C11         3.8262    6.1230    0.0619 C.3       1 <0>         0.0544
     16 O3          2.5361    5.4568    0.0697 O.3       1 <0>        -0.3264
     17 C12         2.5395    4.1152   -0.0573 C.2       1 <0>         0.5285
     18 O4          3.5919    3.5183   -0.1715 O.2       1 <0>        -0.5139
     19 C13         1.2677    3.3722   -0.0578 C.ar      1 <0>        -0.2032
     20 C14         0.0509    4.0606   -0.0471 C.ar      1 <0>        -0.0039
     21 C15        -1.1355    3.3592   -0.0472 C.ar      1 <0>        -0.1047
     22 C16        -1.1293    1.9721   -0.0635 C.ar      1 <0>        -0.0227
     23 C17         0.0634    1.2789   -0.0683 C.ar      1 <0>        -0.1930
     24 C18         1.2697    1.9684   -0.0685 C.ar      1 <0>         0.2867
     25 N3          2.4715    1.2722   -0.0796 N.pl3     1 <0>        -0.8547
     26 Cl1        -2.6453    4.2160   -0.0340 Cl        1 <0>        -0.0637
     27 H1          6.9655   14.7788    3.3861 H         1 <0>         0.0719
     28 H2          8.1893   14.3583    2.1638 H         1 <0>         0.0688
     29 H3          7.2161   15.8369    1.9769 H         1 <0>         0.0686
     30 H4          4.9031   15.7190    1.2544 H         1 <0>         0.1244
     31 H5          3.2076   14.4529   -0.0018 H         1 <0>         0.1272
     32 H6          3.5186   12.0458   -0.4110 H         1 <0>         0.1405
     33 H7          8.3691   12.0218    1.1117 H         1 <0>         0.0718
     34 H8          7.9113   12.4709    2.7721 H         1 <0>         0.0750
     35 H9          7.3401   10.9356    2.0759 H         1 <0>         0.0617
     36 H10         6.4670   10.2343    0.2419 H         1 <0>         0.4091
     37 H11         5.5864    8.0721    0.1496 H         1 <0>         0.4134
     38 H12         4.4317    5.7521    0.8889 H         1 <0>         0.1121
     39 H13         4.3346    5.9193   -0.8805 H         1 <0>         0.1124
     40 H14         0.0406    5.1406   -0.0393 H         1 <0>         0.1505
     41 H15        -2.0642    1.4314   -0.0679 H         1 <0>         0.1417
     42 H16         0.0594    0.1989   -0.0765 H         1 <0>         0.1426
     43 H17         2.5074    0.3724   -0.4399 H         1 <0>         0.4022
     44 H18         3.2749    1.6859    0.2730 H         1 <0>         0.4140
@<TRIPOS>BOND
     1    1    2 1
     2    1   27 1
     3    1   28 1
     4    1   29 1
     5    2    7 ar
     6    2    3 ar
     7    3    4 ar
     8    3   30 1
     9    4    5 ar
    10    4   31 1
    11    5    6 ar
    12    5   32 1
    13    6    7 ar
    14    6    9 1
    15    7    8 1
    16    8   33 1
    17    8   34 1
    18    8   35 1
    19    9   10 am
    20    9   36 1
    21   10   11 2
    22   10   12 am
    23   12   13 am
    24   12   37 1
    25   13   14 2
    26   13   15 1
    27   15   16 1
    28   15   38 1
    29   15   39 1
    30   16   17 1
    31   17   18 2
    32   17   19 1
    33   19   24 ar
    34   19   20 ar
    35   20   21 ar
    36   20   40 1
    37   21   22 ar
    38   21   26 1
    39   22   23 ar
    40   22   41 1
    41   23   24 ar
    42   23   42 1
    43   24   25 1
    44   25   43 1
    45   25   44 1
@<TRIPOS>MOLECULE
ZINC40385582
   52    55     0     0     0
SMALL
USER_CHARGES

@<TRIPOS>ATOM
      1 C1         -1.1280    1.5046   -1.3291 C.3       1 <0>        -0.1173
      2 C2         -1.1197   -0.0023   -1.3453 C.ar      1 <0>        -0.0675
      3 C3         -0.3752   -0.6983   -0.4103 C.ar      1 <0>        -0.1223
      4 C4         -0.3655   -2.0791   -0.4223 C.ar      1 <0>        -0.0510
      5 C5         -1.1046   -2.7691   -1.3750 C.ar      1 <0>         0.0836
      6 C6         -1.8511   -2.0671   -2.3124 C.ar      1 <0>        -0.0785
      7 C7         -1.8609   -0.6860   -2.2912 C.ar      1 <0>        -0.1233
      8 C8         -2.6539   -2.8114   -3.3480 C.3       1 <0>        -0.1176
      9 N1         -1.0966   -4.1671   -1.3903 N.pl3     1 <0>        -0.5818
     10 C9          0.0700   -4.8354   -1.2950 C.2       1 <0>         0.4395
     11 S1          1.5290   -3.9780   -1.0362 S.2       1 <0>        -0.5388
     12 C10         0.0894   -6.2934   -1.4127 C.2       1 <0>        -0.4398
     13 C11         0.1583   -6.9154   -2.6747 C.2       1 <0>         0.5458
     14 N2          0.1749   -8.2467   -2.7503 N.2       1 <0>        -0.6212
     15 C12         0.1282   -8.9971   -1.6680 C.2       1 <0>         0.6903
     16 N3          0.0604   -8.4562   -0.4212 N.am      1 <0>        -0.6603
     17 H1          0.0269   -9.0364    0.3554 H         1 <0>         0.4141
     18 C13         0.0453   -7.1164   -0.2595 C.2       1 <0>         0.5841
     19 O1         -0.0101   -6.6245    0.8542 O.2       1 <0>        -0.5278
     20 N4          0.1480  -10.3568   -1.8015 N.pl3     1 <0>        -0.5791
     21 C14         0.3264  -10.9944   -3.1166 C.3       1 <0>         0.1254
     22 C15         1.6448  -11.7660   -3.0894 C.3       1 <0>        -0.1014
     23 C16         1.7511  -12.6020   -1.8413 C.ar      1 <0>        -0.0672
     24 C17         2.6482  -13.6634   -1.8510 C.ar      1 <0>        -0.1174
     25 C18         2.8015  -14.4628   -0.7378 C.ar      1 <0>        -0.1097
     26 C19         2.0584  -14.2073    0.3999 C.ar      1 <0>        -0.1170
     27 C20         1.1646  -13.1565    0.4113 C.ar      1 <0>        -0.1088
     28 C21         1.0052  -12.3547   -0.7109 C.ar      1 <0>        -0.1070
     29 C22        -0.0016  -11.2396   -0.6397 C.3       1 <0>         0.1532
     30 N5          0.2076   -6.1565   -3.8187 N.pl3     1 <0>        -0.8131
     31 H2         -1.9349    1.8566   -0.6864 H         1 <0>         0.0723
     32 H3         -0.1742    1.8691   -0.9475 H         1 <0>         0.0690
     33 H4         -1.2808    1.8780   -2.3417 H         1 <0>         0.0669
     34 H5          0.1994   -0.1613    0.3298 H         1 <0>         0.1280
     35 H6          0.2164   -2.6220    0.3078 H         1 <0>         0.1451
     36 H7         -2.4447   -0.1396   -3.0172 H         1 <0>         0.1266
     37 H8         -3.6556   -3.0025   -2.9628 H         1 <0>         0.0736
     38 H9         -2.7219   -2.2113   -4.2553 H         1 <0>         0.0753
     39 H10        -2.1650   -3.7589   -3.5748 H         1 <0>         0.0584
     40 H11        -1.9306   -4.6560   -1.4694 H         1 <0>         0.4090
     41 H12        -0.4985  -11.6805   -3.3087 H         1 <0>         0.0853
     42 H13         0.3614  -10.2317   -3.8945 H         1 <0>         0.1167
     43 H14         1.6975  -12.4167   -3.9623 H         1 <0>         0.0956
     44 H15         2.4743  -11.0595   -3.1193 H         1 <0>         0.0862
     45 H16         3.2302  -13.8642   -2.7384 H         1 <0>         0.1255
     46 H17         3.4999  -15.2864   -0.7547 H         1 <0>         0.1262
     47 H18         2.1775  -14.8275    1.2760 H         1 <0>         0.1274
     48 H19         0.5842  -12.9563    1.2998 H         1 <0>         0.1266
     49 H20         0.1566  -10.6667    0.2739 H         1 <0>         0.0900
     50 H21        -1.0062  -11.6626   -0.6325 H         1 <0>         0.0998
     51 H22         0.1206   -5.1919   -3.7649 H         1 <0>         0.4147
     52 H23         0.3293   -6.5852   -4.6802 H         1 <0>         0.4139
@<TRIPOS>BOND
     1    1    2 1
     2    1   31 1
     3    1   32 1
     4    1   33 1
     5    2    7 ar
     6    2    3 ar
     7    3    4 ar
     8    3   34 1
     9    4    5 ar
    10    4   35 1
    11    5    6 ar
    12    5    9 1
    13    6    7 ar
    14    6    8 1
    15    7   36 1
    16    8   37 1
    17    8   38 1
    18    8   39 1
    19    9   10 1
    20    9   40 1
    21   10   11 2
    22   10   12 1
    23   12   18 1
    24   12   13 2
    25   13   14 1
    26   13   30 1
    27   14   15 2
    28   15   16 1
    29   15   20 1
    30   16   17 1
    31   16   18 am
    32   18   19 2
    33   20   29 1
    34   20   21 1
    35   21   22 1
    36   21   41 1
    37   21   42 1
    38   22   23 1
    39   22   43 1
    40   22   44 1
    41   23   28 ar
    42   23   24 ar
    43   24   25 ar
    44   24   45 1
    45   25   26 ar
    46   25   46 1
    47   26   27 ar
    48   26   47 1
    49   27   28 ar
    50   27   48 1
    51   28   29 1
    52   29   49 1
    53   29   50 1
    54   30   51 1
    55   30   52 1
@<TRIPOS>MOLECULE
ZINC45782452
   49    50     0     0     0
SMALL
USER_CHARGES

@<TRIPOS>ATOM
      1 C1          0.0758    1.0323   -0.4511 C.3       1 <0>        -0.1541
      2 C2         -0.0007   -0.4857   -0.6268 C.3       1 <0>         0.0531
      3 O1         -1.3655   -0.9043   -0.5637 O.3       1 <0>        -0.3083
      4 C3         -1.6097   -2.2318   -0.7027 C.ar      1 <0>         0.1577
      5 C4         -0.5599   -3.1171   -0.8902 C.ar      1 <0>        -0.2140
      6 C5         -0.8097   -4.4682   -1.0320 C.ar      1 <0>        -0.0640
      7 C6         -2.1081   -4.9503   -0.9879 C.ar      1 <0>        -0.1606
      8 C7         -3.1648   -4.0864   -0.8024 C.ar      1 <0>        -0.0611
      9 C8         -2.9265   -2.7158   -0.6515 C.ar      1 <0>        -0.1136
     10 C9         -4.0478   -1.7885   -0.4467 C.2       1 <0>         0.0041
     11 C10        -5.3124   -2.2586   -0.3981 C.2       1 <0>        -0.2302
     12 C11        -6.4283   -1.3357   -0.1943 C.2       1 <0>         0.5520
     13 O2         -6.2170   -0.1436   -0.0684 O.2       1 <0>        -0.5444
     14 N1         -7.6908   -1.8051   -0.1458 N.am      1 <0>        -0.7228
     15 C12        -8.8087   -0.8805    0.0584 C.3       1 <0>         0.1864
     16 H1         -8.4978   -0.0761    0.7250 H         1 <0>         0.0970
     17 C13        -9.2355   -0.2912   -1.2876 C.3       1 <0>        -0.1581
     18 C14        -9.9681   -1.6220    0.6724 C.ar      1 <0>        -0.1092
     19 C15       -10.2682   -2.9042    0.2505 C.ar      1 <0>        -0.0929
     20 C16       -11.3301   -3.5865    0.8113 C.ar      1 <0>        -0.1155
     21 C17       -12.0967   -2.9834    1.7997 C.ar      1 <0>         0.1657
     22 C18       -11.7928   -1.6956    2.2211 C.ar      1 <0>        -0.1425
     23 C19       -10.7261   -1.0208    1.6604 C.ar      1 <0>        -0.0850
     24 N2        -13.1737   -3.6718    2.3696 N.am      1 <0>        -0.6862
     25 C20       -13.1146   -5.0099    2.5196 C.2       1 <0>         0.7050
     26 O3        -12.0905   -5.6072    2.2502 O.2       1 <0>        -0.5740
     27 N3        -14.1909   -5.6858    2.9683 N.am      1 <0>        -0.8609
     28 H2          1.1169    1.3516   -0.4992 H         1 <0>         0.0802
     29 H3         -0.4905    1.5190   -1.2451 H         1 <0>         0.0682
     30 H4         -0.3443    1.3077    0.5162 H         1 <0>         0.0682
     31 H5          0.4195   -0.7611   -1.5941 H         1 <0>         0.0644
     32 H6          0.5657   -0.9723    0.1672 H         1 <0>         0.0643
     33 H7          0.4551   -2.7499   -0.9258 H         1 <0>         0.1320
     34 H8          0.0122   -5.1532   -1.1786 H         1 <0>         0.1283
     35 H9         -2.2924   -6.0086   -1.0999 H         1 <0>         0.1288
     36 H10        -4.1751   -4.4667   -0.7691 H         1 <0>         0.1351
     37 H11        -3.8603   -0.7308   -0.3350 H         1 <0>         0.1393
     38 H12        -5.4999   -3.3163   -0.5098 H         1 <0>         0.1278
     39 H13        -7.8592   -2.7551   -0.2461 H         1 <0>         0.4004
     40 H14        -9.5463   -1.0956   -1.9542 H         1 <0>         0.0589
     41 H15       -10.0672    0.3967   -1.1356 H         1 <0>         0.0679
     42 H16        -8.3969    0.2451   -1.7317 H         1 <0>         0.0653
     43 H17        -9.6718   -3.3726   -0.5185 H         1 <0>         0.1240
     44 H18       -11.5643   -4.5878    0.4812 H         1 <0>         0.1375
     45 H19       -12.3873   -1.2238    2.9894 H         1 <0>         0.1279
     46 H20       -10.4864   -0.0209    1.9908 H         1 <0>         0.1300
     47 H21       -13.9627   -3.1859    2.6566 H         1 <0>         0.4083
     48 H22       -15.0079   -5.2093    3.1833 H         1 <0>         0.3996
     49 H23       -14.1484   -6.6488    3.0763 H         1 <0>         0.4199
@<TRIPOS>BOND
     1    1    2 1
     2    1   28 1
     3    1   29 1
     4    1   30 1
     5    2    3 1
     6    2   31 1
     7    2   32 1
     8    3    4 1
     9    4    9 ar
    10    4    5 ar
    11    5    6 ar
    12    5   33 1
    13    6    7 ar
    14    6   34 1
    15    7    8 ar
    16    7   35 1
    17    8    9 ar
    18    8   36 1
    19    9   10 1
    20   10   11 2
    21   10   37 1
    22   11   12 1
    23   11   38 1
    24   12   13 2
    25   12   14 am
    26   14   15 1
    27   14   39 1
    28   15   16 1
    29   15   17 1
    30   15   18 1
    31   17   40 1
    32   17   41 1
    33   17   42 1
    34   18   23 ar
    35   18   19 ar
    36   19   20 ar
    37   19   43 1
    38   20   21 ar
    39   20   44 1
    40   21   22 ar
    41   21   24 1
    42   22   23 ar
    43   22   45 1
    44   23   46 1
    45   24   25 am
    46   24   47 1
    47   25   26 2
    48   25   27 am
    49   27   48 1
    50   27   49 1
@<TRIPOS>MOLECULE
ZINC57061209
   50    52     0     0     0
SMALL
USER_CHARGES

@<TRIPOS>ATOM
      1 C1          0.0037    1.3787    0.1722 C.ar      1 <0>        -0.0996
      2 C2          1.1776    2.0861   -0.0135 C.ar      1 <0>        -0.1140
      3 C3          2.3710    1.4137   -0.2016 C.ar      1 <0>        -0.0944
      4 C4          2.3942    0.0325   -0.2046 C.ar      1 <0>        -0.1010
      5 C5          1.2174   -0.6805   -0.0185 C.ar      1 <0>         0.1451
      6 C6          0.0202   -0.0021    0.1702 C.ar      1 <0>        -0.1356
      7 N1          1.2374   -2.0796   -0.0215 N.am      1 <0>        -0.6749
      8 C7          2.3107   -2.7392    0.4576 C.2       1 <0>         0.5202
      9 O1          3.2175   -2.1247    0.9784 O.2       1 <0>        -0.5145
     10 C8          2.3841   -4.2403    0.3463 C.3       1 <0>        -0.1128
     11 C9          1.2390   -4.8866    1.1529 C.3       1 <0>        -0.1174
     12 C10         1.8753   -6.1609    1.7617 C.3       1 <0>        -0.1242
     13 C11         3.3061   -5.6897    2.1219 C.3       1 <0>        -0.1254
     14 C12         3.6984   -4.7509    0.9624 C.3       1 <0>        -0.1202
     15 C13         3.6476    2.1884   -0.4040 C.3       1 <0>         0.1807
     16 N2          4.2770    2.4405    0.8946 N.am      1 <0>        -0.7363
     17 C14         5.4380    3.1219    0.9599 C.2       1 <0>         0.7142
     18 O2          5.9630    3.5274   -0.0591 O.2       1 <0>        -0.5730
     19 N3          6.0170    3.3539    2.1546 N.am      1 <0>        -0.5324
     20 N4          5.4120    2.8867    3.3288 N.pl3     1 <0>        -0.5483
     21 C15         6.0126    3.1274    4.5682 C.ar      1 <0>         0.2086
     22 C16         7.2060    3.8343    4.6371 C.ar      1 <0>        -0.1675
     23 C17         7.7976    4.0708    5.8626 C.ar      1 <0>        -0.0979
     24 C18         7.2018    3.6037    7.0219 C.ar      1 <0>         0.0436
     25 C19         6.0119    2.8987    6.9556 C.ar      1 <0>        -0.0975
     26 C20         5.4138    2.6648    5.7327 C.ar      1 <0>        -0.1589
     27 F1          7.7824    3.8358    8.2194 F         1 <0>        -0.1427
     28 H1         -0.9261    1.9069    0.3233 H         1 <0>         0.1306
     29 H2          1.1620    3.1660   -0.0119 H         1 <0>         0.1272
     30 H3          3.3266   -0.4921   -0.3519 H         1 <0>         0.1367
     31 H4         -0.8967   -0.5538    0.3156 H         1 <0>         0.1278
     32 H5          0.4789   -2.5748   -0.3683 H         1 <0>         0.4126
     33 H6          2.3207   -4.5404   -0.6997 H         1 <0>         0.1035
     34 H7          0.9014   -4.2145    1.9419 H         1 <0>         0.0704
     35 H8          0.4108   -5.1507    0.4952 H         1 <0>         0.0753
     36 H9          1.3350   -6.4733    2.6553 H         1 <0>         0.0710
     37 H10         1.9070   -6.9655    1.0271 H         1 <0>         0.0717
     38 H11         3.3024   -5.1473    3.0673 H         1 <0>         0.0668
     39 H12         3.9865   -6.5398    2.1714 H         1 <0>         0.0696
     40 H13         4.2724   -5.2995    0.2156 H         1 <0>         0.0705
     41 H14         4.2832   -3.9130    1.3419 H         1 <0>         0.0897
     42 H15         4.3272    1.6114   -1.0312 H         1 <0>         0.0789
     43 H16         3.4232    3.1381   -0.8895 H         1 <0>         0.0816
     44 H17         3.8581    2.1171    1.7075 H         1 <0>         0.3941
     45 H18         6.8526    3.8443    2.2016 H         1 <0>         0.4342
     46 H19         4.5764    2.3963    3.2818 H         1 <0>         0.4233
     47 H20         7.6713    4.1985    3.7331 H         1 <0>         0.1279
     48 H21         8.7259    4.6202    5.9166 H         1 <0>         0.1383
     49 H22         5.5489    2.5352    7.8610 H         1 <0>         0.1396
     50 H23         4.4833    2.1189    5.6819 H         1 <0>         0.1352
@<TRIPOS>BOND
     1    1    6 ar
     2    1    2 ar
     3    1   28 1
     4    2    3 ar
     5    2   29 1
     6    3    4 ar
     7    3   15 1
     8    4    5 ar
     9    4   30 1
    10    5    6 ar
    11    5    7 1
    12    6   31 1
    13    7    8 am
    14    7   32 1
    15    8    9 2
    16    8   10 1
    17   10   14 1
    18   10   11 1
    19   10   33 1
    20   11   12 1
    21   11   34 1
    22   11   35 1
    23   12   13 1
    24   12   36 1
    25   12   37 1
    26   13   14 1
    27   13   38 1
    28   13   39 1
    29   14   40 1
    30   14   41 1
    31   15   16 1
    32   15   42 1
    33   15   43 1
    34   16   17 am
    35   16   44 1
    36   17   18 2
    37   17   19 am
    38   19   20 1
    39   19   45 1
    40   20   21 1
    41   20   46 1
    42   21   26 ar
    43   21   22 ar
    44   22   23 ar
    45   22   47 1
    46   23   24 ar
    47   23   48 1
    48   24   25 ar
    49   24   27 1
    50   25   26 ar
    51   25   49 1
    52   26   50 1
@<TRIPOS>MOLECULE
ZINC66930007
   58    60     0     0     0
SMALL
USER_CHARGES

@<TRIPOS>ATOM
      1 C1         -3.0863   -4.1294   -1.9387 C.3       1 <0>        -0.1506
      2 C2         -1.8928   -3.5090   -1.2096 C.3       1 <0>        -0.1358
      3 C3         -1.4072   -4.4665   -0.1195 C.3       1 <0>         0.1348
      4 N1         -0.2644   -3.8725    0.5786 N.am      1 <0>        -0.7429
      5 C4          0.3323   -4.5414    1.5851 C.2       1 <0>         0.7021
      6 O1         -0.0779   -5.6378    1.9137 O.2       1 <0>        -0.5696
      7 N2          1.3836   -3.9949    2.2274 N.am      1 <0>        -0.6871
      8 C5          1.9424   -4.6445    3.3338 C.ar      1 <0>         0.1629
      9 C6          2.4417   -3.9035    4.3968 C.ar      1 <0>        -0.1448
     10 C7          2.9921   -4.5477    5.4875 C.ar      1 <0>        -0.0854
     11 C8          3.0463   -5.9290    5.5218 C.ar      1 <0>        -0.0846
     12 C9          2.5503   -6.6697    4.4646 C.ar      1 <0>        -0.0857
     13 C10         1.9935   -6.0317    3.3736 C.ar      1 <0>        -0.1166
     14 C11         3.6476   -6.6286    6.7134 C.3       1 <0>        -0.0987
     15 C12         2.5718   -6.8964    7.7343 C.2       1 <0>         0.5117
     16 O2          1.4294   -6.5530    7.5156 O.2       1 <0>        -0.5262
     17 N3          2.8793   -7.5175    8.8902 N.am      1 <0>        -0.7277
     18 C13         1.8335   -7.7779    9.8825 C.3       1 <0>         0.0972
     19 C14         2.4636   -8.3735   11.1431 C.3       1 <0>         0.1708
     20 C15         3.5815   -7.4539   11.6302 C.3       1 <0>        -0.1053
     21 C16         4.0509   -7.9486   13.0034 C.3       1 <0>        -0.1178
     22 C17         2.9439   -7.6725   14.0189 C.3       1 <0>        -0.0865
     23 C18         1.6260   -8.2086   13.5242 C.ar      1 <0>        -0.0539
     24 C19         1.4042   -8.5269   12.2030 C.ar      1 <0>        -0.1120
     25 C20         0.1630   -9.0111   11.8113 C.ar      1 <0>        -0.1131
     26 C21        -0.8477   -9.1789   12.7354 C.ar      1 <0>        -0.1230
     27 C22        -0.6239   -8.8631   14.0623 C.ar      1 <0>        -0.1085
     28 C23         0.6080   -8.3800   14.4532 C.ar      1 <0>        -0.1247
     29 O3          3.0110   -9.6570   10.8348 O.3       1 <0>        -0.5467
     30 H1         -3.8927   -4.3096   -1.2278 H         1 <0>         0.0590
     31 H2         -3.4322   -3.4472   -2.7153 H         1 <0>         0.0614
     32 H3         -2.7842   -5.0733   -2.3925 H         1 <0>         0.0589
     33 H4         -1.0864   -3.3287   -1.9204 H         1 <0>         0.0690
     34 H5         -2.1949   -2.5651   -0.7558 H         1 <0>         0.0690
     35 H6         -2.2136   -4.6468    0.5914 H         1 <0>         0.0687
     36 H7         -1.1051   -5.4104   -0.5733 H         1 <0>         0.0687
     37 H8          0.0628   -2.9978    0.3165 H         1 <0>         0.3976
     38 H9          1.7529   -3.1512    1.9228 H         1 <0>         0.4063
     39 H10         2.4000   -2.8247    4.3705 H         1 <0>         0.1245
     40 H11         3.3810   -3.9719    6.3144 H         1 <0>         0.1234
     41 H12         2.5944   -7.7484    4.4942 H         1 <0>         0.1226
     42 H13         1.6019   -6.6109    2.5504 H         1 <0>         0.1404
     43 H14         4.0898   -7.5728    6.3955 H         1 <0>         0.1037
     44 H15         4.4183   -5.9968    7.1550 H         1 <0>         0.1032
     45 H16         3.7930   -7.7922    9.0650 H         1 <0>         0.4041
     46 H17         1.3308   -6.8440   10.1341 H         1 <0>         0.0799
     47 H18         1.1093   -8.4810    9.4713 H         1 <0>         0.0707
     48 H19         4.4130   -7.4820   10.9260 H         1 <0>         0.0765
     49 H20         3.2066   -6.4339   11.7159 H         1 <0>         0.0809
     50 H21         4.2501   -9.0193   12.9595 H         1 <0>         0.0765
     51 H22         4.9572   -7.4176   13.2948 H         1 <0>         0.0715
     52 H23         3.1953   -8.1530   14.9644 H         1 <0>         0.0781
     53 H24         2.8588   -6.5970   14.1744 H         1 <0>         0.0786
     54 H25        -0.0128   -9.2580   10.7747 H         1 <0>         0.1226
     55 H26        -1.8104   -9.5560   12.4232 H         1 <0>         0.1246
     56 H27        -1.4106   -8.9937   14.7906 H         1 <0>         0.1244
     57 H28         0.7821   -8.1332   15.4901 H         1 <0>         0.1236
     58 H29         2.3603  -10.2944   10.5101 H         1 <0>         0.3791
@<TRIPOS>BOND
     1    1    2 1
     2    1   30 1
     3    1   31 1
     4    1   32 1
     5    2    3 1
     6    2   33 1
     7    2   34 1
     8    3    4 1
     9    3   35 1
    10    3   36 1
    11    4    5 am
    12    4   37 1
    13    5    6 2
    14    5    7 am
    15    7    8 1
    16    7   38 1
    17    8   13 ar
    18    8    9 ar
    19    9   10 ar
    20    9   39 1
    21   10   11 ar
    22   10   40 1
    23   11   12 ar
    24   11   14 1
    25   12   13 ar
    26   12   41 1
    27   13   42 1
    28   14   15 1
    29   14   43 1
    30   14   44 1
    31   15   16 2
    32   15   17 am
    33   17   18 1
    34   17   45 1
    35   18   19 1
    36   18   46 1
    37   18   47 1
    38   19   24 1
    39   19   20 1
    40   19   29 1
    41   20   21 1
    42   20   48 1
    43   20   49 1
    44   21   22 1
    45   21   50 1
    46   21   51 1
    47   22   23 1
    48   22   52 1
    49   22   53 1
    50   23   28 ar
    51   23   24 ar
    52   24   25 ar
    53   25   26 ar
    54   25   54 1
    55   26   27 ar
    56   26   55 1
    57   27   28 ar
    58   27   56 1
    59   28   57 1
    60   29   58 1
@<TRIPOS>MOLECULE
ZINC13445003
   40    43     0     0     0
SMALL
USER_CHARGES
3,5-difluoro-4-[4-(4-fluorophenyl)-5-(4-pyridyl)oxazol-2-yl]pyridine-2,6-diamine
@<TRIPOS>ATOM
      1 C1          4.6150    4.4792    1.1452 C.ar      1 <0>        -0.0539
      2 C2          5.9194    4.0433    1.2523 C.ar      1 <0>        -0.1523
      3 C3          6.3809    3.0237    0.4354 C.ar      1 <0>         0.1125
      4 C4          5.5339    2.4334   -0.4889 C.ar      1 <0>        -0.1506
      5 C5          4.2264    2.8588   -0.5998 C.ar      1 <0>        -0.0655
      6 C6          3.7573    3.8847    0.2201 C.ar      1 <0>        -0.0303
      7 C7          2.3538    4.3457    0.1046 C.2       1 <0>         0.0639
      8 C8          1.2368    3.5450   -0.0485 C.2       1 <0>         0.0144
      9 O1          0.1709    4.3742   -0.1048 O.3       1 <0>        -0.1628
     10 C9          0.6220    5.6353    0.0045 C.2       1 <0>         0.2329
     11 N1          1.9281    5.6215    0.1266 N.2       1 <0>        -0.4229
     12 C10        -0.2214    6.8481   -0.0102 C.ar      1 <0>         0.0426
     13 C11         0.3483    8.1214    0.1173 C.ar      1 <0>        -0.0091
     14 C12        -0.4796    9.2363    0.0929 C.ar      1 <0>         0.4358
     15 N2         -1.7914    9.1056   -0.0375 N.ar      1 <0>        -0.5467
     16 C13        -2.3690    7.9193   -0.1551 C.ar      1 <0>         0.4366
     17 C14        -1.6124    6.7547   -0.1460 C.ar      1 <0>        -0.0343
     18 F1         -2.2095    5.5489   -0.2670 F         1 <0>        -0.1193
     19 N3         -3.7535    7.8389   -0.2892 N.pl3     1 <0>        -0.8336
     20 N4          0.0761   10.5082    0.2136 N.pl3     1 <0>        -0.8319
     21 F2          1.6846    8.2633    0.2564 F         1 <0>        -0.1067
     22 C15         1.2126    2.0734   -0.1284 C.ar      1 <0>         0.0235
     23 C16         1.9179    1.2895    0.7959 C.ar      1 <0>        -0.1372
     24 C17         1.8666   -0.0832    0.6835 C.ar      1 <0>         0.1078
     25 N5          1.1670   -0.6596   -0.2761 N.ar      1 <0>        -0.4725
     26 C18         0.4887    0.0398   -1.1667 C.ar      1 <0>         0.1066
     27 C19         0.4833    1.4176   -1.1304 C.ar      1 <0>        -0.1460
     28 F3          7.6607    2.6040    0.5401 F         1 <0>        -0.1348
     29 H1          4.2574    5.2768    1.7795 H         1 <0>         0.1399
     30 H2          6.5834    4.5006    1.9710 H         1 <0>         0.1426
     31 H3          5.8982    1.6392   -1.1237 H         1 <0>         0.1417
     32 H4          3.5671    2.3984   -1.3208 H         1 <0>         0.1311
     33 H5         -4.1829    6.9734   -0.3755 H         1 <0>         0.4174
     34 H6         -4.2879    8.6484   -0.2963 H         1 <0>         0.4140
     35 H7         -0.4968   11.2909    0.2017 H         1 <0>         0.4142
     36 H8          1.0359   10.6111    0.3094 H         1 <0>         0.4184
     37 H9          2.4888    1.7541    1.5862 H         1 <0>         0.1418
     38 H10         2.4061   -0.6959    1.3906 H         1 <0>         0.1657
     39 H11        -0.0696   -0.4748   -1.9347 H         1 <0>         0.1650
     40 H12        -0.0740    1.9833   -1.8624 H         1 <0>         0.1418
@<TRIPOS>BOND
     1    1    6 ar
     2    1    2 ar
     3    1   29 1
     4    2    3 ar
     5    2   30 1
     6    3    4 ar
     7    3   28 1
     8    4    5 ar
     9    4   31 1
    10    5    6 ar
    11    5   32 1
    12    6    7 1
    13    7   11 1
    14    7    8 2
    15    8    9 1
    16    8   22 1
    17    9   10 1
    18   10   11 2
    19   10   12 1
    20   12   17 ar
    21   12   13 ar
    22   13   14 ar
    23   13   21 1
    24   14   15 ar
    25   14   20 1
    26   15   16 ar
    27   16   17 ar
    28   16   19 1
    29   17   18 1
    30   19   33 1
    31   19   34 1
    32   20   35 1
    33   20   36 1
    34   22   27 ar
    35   22   23 ar
    36   23   24 ar
    37   23   37 1
    38   24   25 ar
    39   24   38 1
    40   25   26 ar
    41   26   27 ar
    42   26   39 1
    43   27   40 1
@<TRIPOS>MOLECULE
ZINC40824314
   48    50     0     0     0
SMALL
USER_CHARGES

@<TRIPOS>ATOM
      1 C1         -1.5146   -2.3633   -2.2480 C.3       1 <0>        -0.1152
      2 C2         -0.7086   -1.8562   -1.0799 C.ar      1 <0>        -0.0621
      3 C3          0.0239   -0.6895   -1.2008 C.ar      1 <0>        -0.1339
      4 C4          0.7652   -0.2210   -0.1315 C.ar      1 <0>        -0.0615
      5 C5          0.7763   -0.9175    1.0610 C.ar      1 <0>        -0.1264
      6 C6          0.0413   -2.0895    1.1858 C.ar      1 <0>         0.1516
      7 C7         -0.7067   -2.5542    0.1117 C.ar      1 <0>        -0.1501
      8 N1          0.0504   -2.7971    2.3918 N.am      1 <0>        -0.6650
      9 C8          0.1490   -2.1344    3.5613 C.2       1 <0>         0.6091
     10 O1          0.1336   -0.9175    3.5743 O.2       1 <0>        -0.4928
     11 C9          0.2751   -2.8798    4.8184 C.2       1 <0>        -0.1041
     12 C10         0.3770   -2.3299    6.0660 C.2       1 <0>        -0.0261
     13 C11         0.4760   -3.4031    6.9598 C.2       1 <0>        -0.1579
     14 C12         0.4321   -4.5613    6.2206 C.2       1 <0>         0.0717
     15 O2          0.3042   -4.2266    4.9386 O.3       1 <0>        -0.1460
     16 C13         0.5177   -5.9333    6.8397 C.3       1 <0>        -0.0461
     17 C14         1.1546   -5.8261    8.2278 C.3       1 <0>        -0.1097
     18 C15         0.4193   -4.7872    9.0810 C.3       1 <0>        -0.1201
     19 C16         0.6049   -3.4223    8.4343 C.2       1 <0>         0.1801
     20 N2          0.8573   -2.3537    9.1246 N.2       1 <0>        -0.2461
     21 N3          0.9687   -2.4307   10.5191 N.am      1 <0>        -0.5867
     22 C17         1.2310   -1.3203   11.2365 C.2       1 <0>         0.7351
     23 O3          1.3277   -1.3872   12.4469 O.2       1 <0>        -0.5844
     24 N4          1.3860   -0.1358   10.6125 N.am      1 <0>        -0.8489
     25 C18         0.3823   -0.8627    6.4102 C.3       1 <0>        -0.0995
     26 C19         1.5623    1.0506   -0.2679 C.3       1 <0>        -0.1153
     27 H1         -2.5180   -1.9393   -2.2084 H         1 <0>         0.0725
     28 H2         -1.0314   -2.0668   -3.1789 H         1 <0>         0.0689
     29 H3         -1.5774   -3.4505   -2.2014 H         1 <0>         0.0670
     30 H4          0.0172   -0.1432   -2.1324 H         1 <0>         0.1240
     31 H5          1.3560   -0.5515    1.8955 H         1 <0>         0.1346
     32 H6         -1.2824   -3.4630    0.2068 H         1 <0>         0.1253
     33 H7         -0.0144   -3.7649    2.3868 H         1 <0>         0.4151
     34 H8         -0.4836   -6.3543    6.9306 H         1 <0>         0.1044
     35 H9          1.1280   -6.5795    6.2086 H         1 <0>         0.1010
     36 H10         1.1050   -6.7966    8.7217 H         1 <0>         0.0950
     37 H11         2.1984   -5.5305    8.1223 H         1 <0>         0.0771
     38 H12        -0.6419   -5.0320    9.1247 H         1 <0>         0.1004
     39 H13         0.8365   -4.7766   10.0879 H         1 <0>         0.0832
     40 H14         0.8571   -3.2832   10.9682 H         1 <0>         0.4018
     41 H15         1.3089   -0.0825    9.6470 H         1 <0>         0.4077
     42 H16         1.5748    0.6634   11.1288 H         1 <0>         0.4159
     43 H17        -0.6398   -0.5269    6.5850 H         1 <0>         0.0789
     44 H18         0.9763   -0.7028    7.3100 H         1 <0>         0.0797
     45 H19         0.8143   -0.2974    5.5844 H         1 <0>         0.0886
     46 H20         0.9442    1.8999    0.0233 H         1 <0>         0.0735
     47 H21         2.4390    1.0010    0.3779 H         1 <0>         0.0673
     48 H22         1.8803    1.1708   -1.3035 H         1 <0>         0.0682
@<TRIPOS>BOND
     1    1    2 1
     2    1   27 1
     3    1   28 1
     4    1   29 1
     5    2    7 ar
     6    2    3 ar
     7    3    4 ar
     8    3   30 1
     9    4    5 ar
    10    4   26 1
    11    5    6 ar
    12    5   31 1
    13    6    7 ar
    14    6    8 1
    15    7   32 1
    16    8    9 am
    17    8   33 1
    18    9   10 2
    19    9   11 1
    20   11   15 1
    21   11   12 2
    22   12   13 1
    23   12   25 1
    24   13   19 1
    25   13   14 2
    26   14   15 1
    27   14   16 1
    28   16   17 1
    29   16   34 1
    30   16   35 1
    31   17   18 1
    32   17   36 1
    33   17   37 1
    34   18   19 1
    35   18   38 1
    36   18   39 1
    37   19   20 2
    38   20   21 1
    39   21   22 am
    40   21   40 1
    41   22   23 2
    42   22   24 am
    43   24   41 1
    44   24   42 1
    45   25   43 1
    46   25   44 1
    47   25   45 1
    48   26   46 1
    49   26   47 1
    50   26   48 1
@<TRIPOS>MOLECULE
ZINC08341264
   43    46     0     0     0
SMALL
USER_CHARGES

@<TRIPOS>ATOM
      1 C1         -0.0187    1.5258    0.0104 C.3       1 <0>        -0.1482
      2 C2          0.0021   -0.0041    0.0020 C.3       1 <0>        -0.0860
      3 H1         -1.0199   -0.3831    0.0097 H         1 <0>         0.0754
      4 C3          0.7237   -0.5003   -1.2542 C.3       1 <0>        -0.1141
      5 C4          0.5369   -2.0123   -1.3991 C.3       1 <0>        -0.0598
      6 C5          0.9353   -2.6803   -0.0912 C.2       1 <0>        -0.0618
      7 C6          1.0194   -1.9773    1.0588 C.2       1 <0>        -0.2250
      8 S1          1.5079   -3.1643    2.2757 S.3       1 <0>         0.2916
      9 C7          1.5994   -4.5387    1.3151 C.2       1 <0>         0.0403
     10 C8          1.2542   -4.0904    0.0495 C.2       1 <0>        -0.2385
     11 C9          1.2127   -5.0012   -1.0985 C.2       1 <0>         0.5859
     12 O1          2.2086   -5.1703   -1.7774 O.2       1 <0>        -0.5344
     13 N1          0.0718   -5.6512   -1.4021 N.am      1 <0>        -0.8485
     14 N2          1.9418   -5.8251    1.6991 N.am      1 <0>        -0.6171
     15 C10         2.2521   -6.0845    2.9848 C.2       1 <0>         0.5626
     16 O2          2.2315   -5.1897    3.8076 O.2       1 <0>        -0.4942
     17 C11         2.6169   -7.4553    3.3939 C.ar      1 <0>        -0.1508
     18 C12         2.6456   -8.4842    2.4427 C.ar      1 <0>        -0.0716
     19 C13         2.9812   -9.7550    2.8084 C.ar      1 <0>        -0.1093
     20 C14         3.2988  -10.0400    4.1320 C.ar      1 <0>         0.0731
     21 C15         3.2755   -9.0193    5.0999 C.ar      1 <0>         0.0352
     22 C16         2.9369   -7.7209    4.7218 C.ar      1 <0>         0.0204
     23 N3          3.6248   -9.5880    6.2834 N.2       1 <0>        -0.4847
     24 C17         3.8538  -10.8560    6.1064 C.2       1 <0>         0.2698
     25 N4          3.6677  -11.1876    4.7997 N.pl3     1 <0>        -0.5983
     26 H2          3.7750  -12.0694    4.4101 H         1 <0>         0.4287
     27 C18         0.7496   -0.5152    1.2424 C.3       1 <0>        -0.0296
     28 H3          1.0039    1.9031    0.0027 H         1 <0>         0.0572
     29 H4         -0.5459    1.8868   -0.8726 H         1 <0>         0.0579
     30 H5         -0.5289    1.8773    0.9072 H         1 <0>         0.0578
     31 H6          0.3118    0.0009   -2.1301 H         1 <0>         0.0704
     32 H7          1.7867   -0.2728   -1.1748 H         1 <0>         0.0675
     33 H8         -0.5078   -2.2323   -1.6186 H         1 <0>         0.0765
     34 H9          1.1686   -2.3831   -2.2063 H         1 <0>         0.0753
     35 H10        -0.7219   -5.5164   -0.8610 H         1 <0>         0.4036
     36 H11         0.0443   -6.2539   -2.1617 H         1 <0>         0.4025
     37 H12         1.9582   -6.5390    1.0427 H         1 <0>         0.4174
     38 H13         2.4001   -8.2697    1.4131 H         1 <0>         0.1315
     39 H14         2.9999  -10.5414    2.0684 H         1 <0>         0.1341
     40 H15         2.9194   -6.9279    5.4548 H         1 <0>         0.1503
     41 H16         4.1492  -11.5455    6.8834 H         1 <0>         0.2232
     42 H17         1.6929    0.0204    1.3495 H         1 <0>         0.0827
     43 H18         0.1364   -0.3614    2.1303 H         1 <0>         0.0812
@<TRIPOS>BOND
     1    1    2 1
     2    1   28 1
     3    1   29 1
     4    1   30 1
     5    2    3 1
     6    2   27 1
     7    2    4 1
     8    4    5 1
     9    4   31 1
    10    4   32 1
    11    5    6 1
    12    5   33 1
    13    5   34 1
    14    6   10 1
    15    6    7 2
    16    7    8 1
    17    7   27 1
    18    8    9 1
    19    9   10 2
    20    9   14 1
    21   10   11 1
    22   11   12 2
    23   11   13 am
    24   13   35 1
    25   13   36 1
    26   14   15 am
    27   14   37 1
    28   15   16 2
    29   15   17 1
    30   17   22 ar
    31   17   18 ar
    32   18   19 ar
    33   18   38 1
    34   19   20 ar
    35   19   39 1
    36   20   25 1
    37   20   21 ar
    38   21   22 ar
    39   21   23 1
    40   22   40 1
    41   23   24 2
    42   24   25 1
    43   24   41 1
    44   25   26 1
    45   27   42 1
    46   27   43 1
@<TRIPOS>MOLECULE
ZINC58949090
   50    52     0     0     0
SMALL
USER_CHARGES

@<TRIPOS>ATOM
      1 C1         -0.1421    1.4978   -0.0474 C.3       1 <0>        -0.0998
      2 C2         -0.0573   -0.0067   -0.0254 C.2       1 <0>         0.1851
      3 C3         -1.1915   -0.7231    0.0568 C.2       1 <0>        -0.2882
      4 C4         -1.1611   -2.2268    0.0831 C.3       1 <0>         0.0925
      5 H1         -1.9395   -2.6160   -0.5731 H         1 <0>         0.0974
      6 C5          0.1805   -2.7212   -0.3854 C.2       1 <0>        -0.3697
      7 C6          1.2474   -1.8852   -0.4445 C.2       1 <0>         0.4017
      8 O1          1.1476   -0.5920   -0.0938 O.3       1 <0>        -0.2428
      9 N1          2.4541   -2.3697   -0.8756 N.pl3     1 <0>        -0.8368
     10 C7          0.3303   -4.0663   -0.7671 C.2       1 <0>         0.5935
     11 O2         -0.0604   -4.4366   -1.8604 O.2       1 <0>        -0.5416
     12 N2          0.9060   -4.9460    0.0763 N.am      1 <0>        -0.8511
     13 C8         -1.4060   -2.7077    1.4902 C.ar      1 <0>        -0.0340
     14 C9         -0.5482   -2.3322    2.5077 C.ar      1 <0>        -0.1432
     15 C10        -0.7701   -2.7717    3.7995 C.ar      1 <0>        -0.0758
     16 C11        -1.8498   -3.5879    4.0769 C.ar      1 <0>        -0.2109
     17 C12        -2.7117   -3.9660    3.0579 C.ar      1 <0>         0.1350
     18 C13        -2.4903   -3.5186    1.7633 C.ar      1 <0>        -0.1444
     19 O3         -3.7745   -4.7687    3.3282 O.3       1 <0>        -0.3077
     20 C14        -3.9439   -5.1862    4.6843 C.3       1 <0>         0.1032
     21 C15        -5.1647   -6.0634    4.7911 C.ar      1 <0>        -0.0990
     22 C16        -6.4006   -5.4996    5.0474 C.ar      1 <0>        -0.0949
     23 C17        -7.5203   -6.3042    5.1453 C.ar      1 <0>        -0.1228
     24 C18        -7.4043   -7.6725    4.9866 C.ar      1 <0>        -0.1085
     25 C19        -6.1685   -8.2362    4.7295 C.ar      1 <0>        -0.1230
     26 C20        -5.0494   -7.4311    4.6273 C.ar      1 <0>        -0.0951
     27 C21        -2.4284   -0.0552    0.1199 C.2       1 <0>         0.4018
     28 O4         -2.4648    1.1588    0.0998 O.2       1 <0>        -0.4718
     29 C22        -3.7080   -0.8459    0.2123 C.3       1 <0>        -0.2043
     30 H2          0.8612    1.9173   -0.1211 H         1 <0>         0.0725
     31 H3         -0.7329    1.8158   -0.9065 H         1 <0>         0.1091
     32 H4         -0.6161    1.8484    0.8694 H         1 <0>         0.1079
     33 H5          2.5186   -3.2743   -1.2197 H         1 <0>         0.4244
     34 H6          3.2441   -1.8082   -0.8366 H         1 <0>         0.4094
     35 H7          1.2170   -4.6513    0.9465 H         1 <0>         0.4015
     36 H8          1.0094   -5.8739   -0.1870 H         1 <0>         0.3995
     37 H9          0.2968   -1.6948    2.2929 H         1 <0>         0.1149
     38 H10        -0.0987   -2.4770    4.5925 H         1 <0>         0.1242
     39 H11        -2.0224   -3.9316    5.0861 H         1 <0>         0.1266
     40 H12        -3.1626   -3.8077    0.9691 H         1 <0>         0.1307
     41 H13        -3.0652   -5.7459    5.0047 H         1 <0>         0.0711
     42 H14        -4.0689   -4.3104    5.3211 H         1 <0>         0.0716
     43 H15        -6.4912   -4.4306    5.1714 H         1 <0>         0.1242
     44 H16        -8.4858   -5.8639    5.3462 H         1 <0>         0.1260
     45 H17        -8.2790   -8.3012    5.0639 H         1 <0>         0.1250
     46 H18        -6.0778   -9.3052    4.6058 H         1 <0>         0.1258
     47 H19        -4.0846   -7.8711    4.4227 H         1 <0>         0.1237
     48 H20        -3.4771   -1.9112    0.2178 H         1 <0>         0.0832
     49 H21        -4.2320   -0.5830    1.1312 H         1 <0>         0.0920
     50 H22        -4.3402   -0.6156   -0.6452 H         1 <0>         0.0921
@<TRIPOS>BOND
     1    1    2 1
     2    1   30 1
     3    1   31 1
     4    1   32 1
     5    2    8 1
     6    2    3 2
     7    3    4 1
     8    3   27 1
     9    4    5 1
    10    4    6 1
    11    4   13 1
    12    6    7 2
    13    6   10 1
    14    7    8 1
    15    7    9 1
    16    9   33 1
    17    9   34 1
    18   10   11 2
    19   10   12 am
    20   12   35 1
    21   12   36 1
    22   13   18 ar
    23   13   14 ar
    24   14   15 ar
    25   14   37 1
    26   15   16 ar
    27   15   38 1
    28   16   17 ar
    29   16   39 1
    30   17   18 ar
    31   17   19 1
    32   18   40 1
    33   19   20 1
    34   20   21 1
    35   20   41 1
    36   20   42 1
    37   21   26 ar
    38   21   22 ar
    39   22   23 ar
    40   22   43 1
    41   23   24 ar
    42   23   44 1
    43   24   25 ar
    44   24   45 1
    45   25   26 ar
    46   25   46 1
    47   26   47 1
    48   27   28 2
    49   27   29 1
    50   29   48 1
    51   29   49 1
    52   29   50 1
@<TRIPOS>MOLECULE
ZINC66344124
   50    52     0     0     0
SMALL
USER_CHARGES

@<TRIPOS>ATOM
      1 C1         -0.0166    1.3751    0.0096 C.ar      1 <0>        -0.1273
      2 C2          1.1704    2.0863    0.0021 C.ar      1 <0>        -0.0709
      3 C3          2.3828    1.4202   -0.0131 C.ar      1 <0>        -0.1173
      4 C4          2.4156    0.0409   -0.0213 C.ar      1 <0>        -0.0383
      5 C5          1.2221   -0.6824   -0.0138 C.ar      1 <0>        -0.1410
      6 C6          0.0021   -0.0041    0.0020 C.ar      1 <0>        -0.0771
      7 C7          1.2496   -2.1606   -0.0230 C.2       1 <0>         0.5622
      8 O1          2.3134   -2.7485   -0.0371 O.2       1 <0>        -0.5363
      9 N1          0.0952   -2.8561   -0.0157 N.am      1 <0>        -0.8503
     10 C8          3.6706    2.2029   -0.0212 C.3       1 <0>         0.1806
     11 N2          4.1011    2.4491    1.3573 N.am      1 <0>        -0.7431
     12 C9          5.2358    3.1360    1.5965 C.2       1 <0>         0.7049
     13 O2          5.9021    3.5513    0.6681 O.2       1 <0>        -0.5865
     14 N3          5.6318    3.3625    2.8647 N.am      1 <0>        -0.7449
     15 C10         6.8652    4.1091    3.1246 C.3       1 <0>         0.1503
     16 C11         7.0829    4.2245    4.6347 C.3       1 <0>        -0.1146
     17 H1          7.0668    3.2417    5.1058 H         1 <0>         0.0934
     18 C12         6.0312    5.1667    5.2777 C.3       1 <0>        -0.1268
     19 C13         6.7600    5.6933    6.5320 C.3       1 <0>         0.1130
     20 N4          8.2029    5.5403    6.2949 N.pl3     1 <0>        -0.6350
     21 C14         8.4037    4.9699    4.9499 C.3       1 <0>         0.1217
     22 C15         9.2172    5.8800    7.1953 C.ar      1 <0>         0.2279
     23 C16        10.5483    5.6915    6.8468 C.ar      1 <0>        -0.1683
     24 C17        11.5487    6.0282    7.7377 C.ar      1 <0>        -0.1016
     25 C18        11.2252    6.5533    8.9774 C.ar      1 <0>         0.0356
     26 C19         9.8988    6.7421    9.3269 C.ar      1 <0>        -0.1022
     27 C20         8.8953    6.4118    8.4372 C.ar      1 <0>        -0.1680
     28 F1         12.2053    6.8815    9.8474 F         1 <0>        -0.1457
     29 H2         -0.9597    1.9011    0.0260 H         1 <0>         0.1338
     30 H3          1.1503    3.1661    0.0077 H         1 <0>         0.1318
     31 H4          3.3627   -0.4779   -0.0339 H         1 <0>         0.1395
     32 H5         -0.9251   -0.5579    0.0083 H         1 <0>         0.1288
     33 H6         -0.7537   -2.3869   -0.0044 H         1 <0>         0.4012
     34 H7          0.1133   -3.8259   -0.0217 H         1 <0>         0.4074
     35 H8          4.4383    1.6339   -0.5454 H         1 <0>         0.0794
     36 H9          3.5140    3.1549   -0.5284 H         1 <0>         0.0797
     37 H10         3.5695    2.1178    2.0979 H         1 <0>         0.3974
     38 H11         5.1002    3.0311    3.6053 H         1 <0>         0.3965
     39 H12         7.7087    3.5852    2.6749 H         1 <0>         0.0723
     40 H13         6.7843    5.1063    2.6919 H         1 <0>         0.0721
     41 H14         5.7839    5.9862    4.6030 H         1 <0>         0.0814
     42 H15         5.1355    4.6117    5.5567 H         1 <0>         0.0828
     43 H16         6.5192    6.7450    6.6866 H         1 <0>         0.0642
     44 H17         6.4640    5.1109    7.4046 H         1 <0>         0.0633
     45 H18         9.2413    4.2723    4.9541 H         1 <0>         0.0769
     46 H19         8.5740    5.7640    4.2229 H         1 <0>         0.0692
     47 H20        10.8010    5.2816    5.8801 H         1 <0>         0.1299
     48 H21        12.5839    5.8814    7.4673 H         1 <0>         0.1350
     49 H22         9.6488    7.1515   10.2946 H         1 <0>         0.1345
     50 H23         7.8610    6.5634    8.7085 H         1 <0>         0.1286
@<TRIPOS>BOND
     1    1    6 ar
     2    1    2 ar
     3    1   29 1
     4    2    3 ar
     5    2   30 1
     6    3    4 ar
     7    3   10 1
     8    4    5 ar
     9    4   31 1
    10    5    6 ar
    11    5    7 1
    12    6   32 1
    13    7    8 2
    14    7    9 am
    15    9   33 1
    16    9   34 1
    17   10   11 1
    18   10   35 1
    19   10   36 1
    20   11   12 am
    21   11   37 1
    22   12   13 2
    23   12   14 am
    24   14   15 1
    25   14   38 1
    26   15   16 1
    27   15   39 1
    28   15   40 1
    29   16   17 1
    30   16   21 1
    31   16   18 1
    32   18   19 1
    33   18   41 1
    34   18   42 1
    35   19   20 1
    36   19   43 1
    37   19   44 1
    38   20   21 1
    39   20   22 1
    40   21   45 1
    41   21   46 1
    42   22   27 ar
    43   22   23 ar
    44   23   24 ar
    45   23   47 1
    46   24   25 ar
    47   24   48 1
    48   25   26 ar
    49   25   28 1
    50   26   27 ar
    51   26   49 1
    52   27   50 1
@<TRIPOS>MOLECULE
ZINC05291610
   41    43     0     0     0
SMALL
USER_CHARGES
N-(5-chloro-2-fluoro-phenyl)-2-(1,3-dioxo-2,4-diazaspiro[4.5]dec-2-yl)-acetamide
@<TRIPOS>ATOM
      1 C1         -1.1100   -4.8492   -0.3290 C.ar      1 <0>        -0.0935
      2 C2         -2.1326   -4.1217   -0.9100 C.ar      1 <0>        -0.1210
      3 C3         -2.1512   -2.7436   -0.8001 C.ar      1 <0>         0.0809
      4 C4         -1.1402   -2.0895   -0.1040 C.ar      1 <0>         0.1265
      5 C5         -0.1130   -2.8225    0.4731 C.ar      1 <0>        -0.0871
      6 C6         -0.1029   -4.2010    0.3636 C.ar      1 <0>        -0.0279
      7 Cl1         1.1785   -5.1190    1.0911 Cl        1 <0>        -0.0516
      8 N1         -1.1558   -0.6938    0.0094 N.am      1 <0>        -0.6652
      9 C7          0.0024   -0.0047    0.0093 C.2       1 <0>         0.5049
     10 O1          1.0606   -0.5972   -0.0074 O.2       1 <0>        -0.5010
     11 C8         -0.0172    1.5021    0.0300 C.3       1 <0>         0.1028
     12 N2          1.3575    2.0085    0.0257 N.am      1 <0>        -0.5646
     13 C9          2.0599    2.2858   -1.0922 C.2       1 <0>         0.5370
     14 O2          1.6885    2.1684   -2.2403 O.2       1 <0>        -0.4557
     15 C10         3.4073    2.7741   -0.6117 C.3       1 <0>         0.1299
     16 C11         3.6479    4.2076   -1.0721 C.3       1 <0>        -0.1148
     17 C12         5.0034    4.6928   -0.5523 C.3       1 <0>        -0.1172
     18 C13         6.1089    3.7770   -1.0820 C.3       1 <0>        -0.1257
     19 C14         5.8672    2.3481   -0.5915 C.3       1 <0>        -0.1170
     20 C15         4.5151    1.8532   -1.1113 C.3       1 <0>        -0.1151
     21 N3          3.3074    2.7130    0.8519 N.am      1 <0>        -0.7115
     22 C16         2.0705    2.2589    1.1307 C.2       1 <0>         0.7088
     23 O3          1.6499    2.0922    2.2587 O.2       1 <0>        -0.5380
     24 F1         -3.1504   -2.0332   -1.3678 F         1 <0>        -0.1300
     25 H1         -1.0973   -5.9256   -0.4164 H         1 <0>         0.1478
     26 H2         -2.9172   -4.6305   -1.4503 H         1 <0>         0.1526
     27 H3          0.6758   -2.3171    1.0104 H         1 <0>         0.1599
     28 H4         -2.0003   -0.2230    0.0879 H         1 <0>         0.4198
     29 H5         -0.5430    1.8707   -0.8508 H         1 <0>         0.1335
     30 H6         -0.5285    1.8465    0.9290 H         1 <0>         0.1359
     31 H7          3.6424    4.2448   -2.1615 H         1 <0>         0.0914
     32 H8          2.8586    4.8510   -0.6833 H         1 <0>         0.0754
     33 H9          5.0040    4.6705    0.5375 H         1 <0>         0.0650
     34 H10         5.1806    5.7123   -0.8950 H         1 <0>         0.0758
     35 H11         7.0754    4.1270   -0.7193 H         1 <0>         0.0699
     36 H12         6.1024    3.7929   -2.1718 H         1 <0>         0.0691
     37 H13         5.8650    2.3334    0.4984 H         1 <0>         0.0648
     38 H14         6.6593    1.6976   -0.9623 H         1 <0>         0.0758
     39 H15         4.3358    0.8406   -0.7500 H         1 <0>         0.0783
     40 H16         4.5234    1.8536   -2.2013 H         1 <0>         0.0901
     41 H17         3.9950    2.9556    1.4917 H         1 <0>         0.4412
@<TRIPOS>BOND
     1    1    6 ar
     2    1    2 ar
     3    1   25 1
     4    2    3 ar
     5    2   26 1
     6    3    4 ar
     7    3   24 1
     8    4    5 ar
     9    4    8 1
    10    5    6 ar
    11    5   27 1
    12    6    7 1
    13    8    9 am
    14    8   28 1
    15    9   10 2
    16    9   11 1
    17   11   12 1
    18   11   29 1
    19   11   30 1
    20   12   22 am
    21   12   13 am
    22   13   14 2
    23   13   15 1
    24   15   20 1
    25   15   16 1
    26   15   21 1
    27   16   17 1
    28   16   31 1
    29   16   32 1
    30   17   18 1
    31   17   33 1
    32   17   34 1
    33   18   19 1
    34   18   35 1
    35   18   36 1
    36   19   20 1
    37   19   37 1
    38   19   38 1
    39   20   39 1
    40   20   40 1
    41   21   22 am
    42   21   41 1
    43   22   23 2
@<TRIPOS>MOLECULE
ZINC24150464
   46    48     0     0     0
SMALL
USER_CHARGES
1-[2-[(4-methyl-2-oxo-chromen-7-yl)amino]-2-oxo-ethyl]cyclohexane-1-carboxylic acid
@<TRIPOS>ATOM
      1 C1         -3.9217    8.3271    7.7817 C.3       1 <0>        -0.1499
      2 C2         -4.1431    6.9207    7.2878 C.2       1 <0>         0.1455
      3 C3         -4.9797    6.0746    7.9433 C.2       1 <0>        -0.2893
      4 C4         -5.1706    4.7635    7.4610 C.2       1 <0>         0.5213
      5 O1         -5.9235    4.0153    8.0584 O.3       1 <0>        -0.3530
      6 O2         -4.5443    4.3189    6.3603 O.3       1 <0>        -0.2353
      7 C5         -3.7000    5.1084    5.6623 C.2       1 <0>         0.1672
      8 C6         -3.4627    6.4291    6.0879 C.2       1 <0>        -0.1976
      9 C7         -2.5888    7.2515    5.3677 C.2       1 <0>        -0.0186
     10 C8         -1.9636    6.7676    4.2554 C.2       1 <0>        -0.1514
     11 C9         -2.1986    5.4621    3.8251 C.2       1 <0>         0.2661
     12 C10        -3.0616    4.6338    4.5272 C.2       1 <0>        -0.1427
     13 N1         -1.5563    4.9836    2.6827 N.am      1 <0>        -0.6916
     14 C11        -1.1967    3.6870    2.6049 C.2       1 <0>         0.5145
     15 O3         -1.3486    2.9572    3.5615 O.2       1 <0>        -0.4690
     16 C12        -0.6059    3.1442    1.3292 C.3       1 <0>        -0.1141
     17 C13        -0.2980    1.6556    1.5028 C.3       1 <0>        -0.0835
     18 C14         0.7763    1.4789    2.5777 C.3       1 <0>        -0.1003
     19 C15         2.0479    2.2166    2.1540 C.3       1 <0>        -0.1215
     20 C16         2.5531    1.6424    0.8288 C.3       1 <0>        -0.1195
     21 C17         1.4788    1.8191   -0.2461 C.3       1 <0>        -0.1199
     22 C18         0.2071    1.0814    0.1776 C.3       1 <0>        -0.0976
     23 C19        -1.5506    0.9289    1.9201 C.2       1 <0>         0.4801
     24 O4         -1.5467    0.2392    2.9122 O.co2     1 <0>        -0.6255
     25 O5         -2.6704    1.0479    1.1898 O.co2     1 <0>        -0.7787
     26 H1         -4.5206    8.4957    8.6888 H         1 <0>         0.0975
     27 H2         -4.2267    9.0415    7.0029 H         1 <0>         0.1111
     28 H3         -2.8561    8.4707    8.0139 H         1 <0>         0.1111
     29 H4         -5.4976    6.4056    8.8315 H         1 <0>         0.1900
     30 H5         -2.4064    8.2648    5.6938 H         1 <0>         0.1573
     31 H6         -1.2859    7.4011    3.7024 H         1 <0>         0.1552
     32 H7         -3.2358    3.6225    4.1905 H         1 <0>         0.1744
     33 H8         -1.3434    5.6646    1.8455 H         1 <0>         0.4478
     34 H9         -1.3245    3.2766    0.5070 H         1 <0>         0.1063
     35 H10         0.3225    3.6859    1.0955 H         1 <0>         0.0939
     36 H11         0.4131    1.8917    3.5304 H         1 <0>         0.0737
     37 H12         0.9976    0.4086    2.7025 H         1 <0>         0.0626
     38 H13         1.8266    3.2869    2.0292 H         1 <0>         0.0508
     39 H14         2.8203    2.0896    2.9268 H         1 <0>         0.0544
     40 H15         3.4674    2.1728    0.5242 H         1 <0>         0.0545
     41 H16         2.7745    0.5722    0.9535 H         1 <0>         0.0614
     42 H17         1.2575    2.8894   -0.3709 H         1 <0>         0.0580
     43 H18         1.8420    1.4063   -1.1988 H         1 <0>         0.0588
     44 H19         0.4283    0.0111    0.3024 H         1 <0>         0.0610
     45 H20        -0.5653    1.2085   -0.5952 H         1 <0>         0.0686
     46 H21        -6.0827    2.9895    7.6944 H         1 <0>         0.5158
@<TRIPOS>BOND
     1    1    2 1
     2    1   26 1
     3    1   27 1
     4    1   28 1
     5    2    8 2
     6    2    3 1
     7    3    4 2
     8    3   29 1
     9    4    5 1
    10    4    6 1
    11    5   46 1
    12    6    7 1
    13    7   12 2
    14    7    8 1
    15    8    9 1
    16    9   10 2
    17    9   30 1
    18   10   11 1
    19   10   31 1
    20   11   12 1
    21   11   13 2
    22   12   32 1
    23   13   14 am
    24   13   33 1
    25   14   15 2
    26   14   16 1
    27   16   17 1
    28   16   34 1
    29   16   35 1
    30   17   22 1
    31   17   18 1
    32   17   23 1
    33   18   19 1
    34   18   36 1
    35   18   37 1
    36   19   20 1
    37   19   38 1
    38   19   39 1
    39   20   21 1
    40   20   40 1
    41   20   41 1
    42   21   22 1
    43   21   42 1
    44   21   43 1
    45   22   44 1
    46   22   45 1
    47   23   24 2
    48   23   25 1
@<TRIPOS>MOLECULE
ZINC41547705
   46    48     0     0     0
SMALL
USER_CHARGES

@<TRIPOS>ATOM
      1 C1         -0.0184    1.5028    0.0103 C.3       1 <0>        -0.1170
      2 C2          0.0021   -0.0041    0.0020 C.ar      1 <0>        -0.0673
      3 C3          0.0058   -0.6869   -1.2004 C.ar      1 <0>        -0.1115
      4 C4          0.0186   -2.0697   -1.2161 C.ar      1 <0>        -0.0933
      5 C5          0.0310   -2.7733   -0.0238 C.ar      1 <0>         0.0658
      6 C6          0.0383   -2.0854    1.1876 C.ar      1 <0>         0.1034
      7 C7          0.0229   -0.6998    1.1967 C.ar      1 <0>        -0.1256
      8 N1          0.0857   -2.8048    2.3895 N.am      1 <0>        -0.6558
      9 C8          0.3418   -4.1293    2.3547 C.2       1 <0>         0.5030
     10 O1          0.2787   -4.7885    3.3709 O.2       1 <0>        -0.4567
     11 C9          0.7062   -4.7866    1.0476 C.3       1 <0>         0.1007
     12 O2          0.0253   -4.1334   -0.0260 O.3       1 <0>        -0.2956
     13 C10         2.2171   -4.6838    0.8297 C.3       1 <0>        -0.1714
     14 C11         0.3038   -6.2384    1.0870 C.2       1 <0>         0.5378
     15 O3          0.2067   -6.8121    2.1512 O.2       1 <0>        -0.4452
     16 N2          0.0518   -6.8992   -0.0603 N.am      1 <0>        -0.5968
     17 C12        -0.3194   -8.2383   -0.0239 C.2       1 <0>         0.2416
     18 N3         -0.5961   -9.0375   -1.0314 N.2       1 <0>        -0.5398
     19 C13        -0.9363  -10.2970   -0.8297 C.2       1 <0>         0.1007
     20 C14        -0.9861  -10.7235    0.4562 C.2       1 <0>        -0.2738
     21 S1         -0.5166   -9.2327    1.3195 S.3       1 <0>         0.2134
     22 C15        -1.2554  -11.2196   -1.9778 C.3       1 <0>         0.0039
     23 C16        -2.7683  -11.4355   -2.0532 C.3       1 <0>        -0.1375
     24 C17        -0.7635  -10.5957   -3.2853 C.3       1 <0>        -0.1272
     25 C18        -0.5586  -12.5642   -1.7604 C.3       1 <0>        -0.1395
     26 H1          1.0042    1.8801    0.0026 H         1 <0>         0.0757
     27 H2         -0.5455    1.8639   -0.8728 H         1 <0>         0.0723
     28 H3         -0.5286    1.8543    0.9071 H         1 <0>         0.0696
     29 H4         -0.0018   -0.1383   -2.1307 H         1 <0>         0.1376
     30 H5          0.0193   -2.5999   -2.1570 H         1 <0>         0.1431
     31 H6          0.0229   -0.1646    2.1348 H         1 <0>         0.1362
     32 H7         -0.0634   -2.3558    3.2364 H         1 <0>         0.4222
     33 H8          2.7369   -5.1851    1.6462 H         1 <0>         0.0941
     34 H9          2.4811   -5.1588   -0.1151 H         1 <0>         0.0941
     35 H10         2.5097   -3.6341    0.8029 H         1 <0>         0.0876
     36 H11         0.1294   -6.4404   -0.9113 H         1 <0>         0.4302
     37 H12        -1.2369  -11.6974    0.8497 H         1 <0>         0.1944
     38 H13        -3.2647  -10.4775   -2.2080 H         1 <0>         0.0562
     39 H14        -2.9991  -12.1027   -2.8835 H         1 <0>         0.0636
     40 H15        -3.1187  -11.8799   -1.1216 H         1 <0>         0.0574
     41 H16         0.3142  -10.4419   -3.2316 H         1 <0>         0.0539
     42 H17        -0.9944  -11.2630   -4.1157 H         1 <0>         0.0530
     43 H18        -1.2600   -9.6377   -3.4402 H         1 <0>         0.0622
     44 H19        -0.9090  -13.0087   -0.8289 H         1 <0>         0.0588
     45 H20        -0.7895  -13.2315   -2.5908 H         1 <0>         0.0641
     46 H21         0.5192  -12.4104   -1.7068 H         1 <0>         0.0571
@<TRIPOS>BOND
     1    1    2 1
     2    1   26 1
     3    1   27 1
     4    1   28 1
     5    2    7 ar
     6    2    3 ar
     7    3    4 ar
     8    3   29 1
     9    4    5 ar
    10    4   30 1
    11    5   12 1
    12    5    6 ar
    13    6    7 ar
    14    6    8 1
    15    7   31 1
    16    8    9 am
    17    8   32 1
    18    9   10 2
    19    9   11 1
    20   11   12 1
    21   11   13 1
    22   11   14 1
    23   13   33 1
    24   13   34 1
    25   13   35 1
    26   14   15 2
    27   14   16 am
    28   16   17 1
    29   16   36 1
    30   17   21 1
    31   17   18 2
    32   18   19 1
    33   19   20 2
    34   19   22 1
    35   20   21 1
    36   20   37 1
    37   22   23 1
    38   22   24 1
    39   22   25 1
    40   23   38 1
    41   23   39 1
    42   23   40 1
    43   24   41 1
    44   24   42 1
    45   24   43 1
    46   25   44 1
    47   25   45 1
    48   25   46 1
@<TRIPOS>MOLECULE
ZINC56384202
   54    57     0     0     0
SMALL
USER_CHARGES

@<TRIPOS>ATOM
      1 C1         -0.0267    1.4991   -0.2136 C.3       1 <0>        -0.1071
      2 C2         -0.0039   -0.0026   -0.0892 C.ar      1 <0>        -0.1688
      3 C3          0.0143   -0.6024    1.1628 C.ar      1 <0>        -0.0492
      4 C4          0.0350   -1.9841    1.2325 C.ar      1 <0>        -0.2034
      5 C5          0.0370   -2.7207    0.0533 C.ar      1 <0>         0.3514
      6 N1          0.0193   -2.1118   -1.1216 N.ar      1 <0>        -0.4739
      7 C6         -0.0064   -0.7963   -1.2190 C.ar      1 <0>         0.1320
      8 N2          0.0583   -4.1135    0.1091 N.am      1 <0>        -0.6635
      9 C7         -0.0424   -4.8350   -1.0249 C.2       1 <0>         0.5067
     10 O1         -0.0593   -4.2749   -2.1004 O.2       1 <0>        -0.4634
     11 C8         -0.1338   -6.3376   -0.9563 C.3       1 <0>        -0.1030
     12 C9          1.1171   -6.8939   -0.2723 C.3       1 <0>        -0.1287
     13 C10         1.0049   -8.4185   -0.1733 C.3       1 <0>         0.1150
     14 N3          0.7587   -8.9627   -1.5157 N.am      1 <0>        -0.6301
     15 C11        -0.3662   -8.4320   -2.2977 C.3       1 <0>         0.1296
     16 C12        -0.2386   -6.9072   -2.3729 C.3       1 <0>        -0.1156
     17 C13         1.5501   -9.9300   -2.0202 C.2       1 <0>         0.7102
     18 O2          1.3960  -10.3051   -3.1665 O.2       1 <0>        -0.5817
     19 N4          2.5121  -10.4815   -1.2542 N.am      1 <0>        -0.7348
     20 C14         3.2999  -11.6062   -1.7646 C.3       1 <0>         0.2013
     21 H1          2.6839  -12.2402   -2.4022 H         1 <0>         0.0976
     22 C15         3.8814  -12.4275   -0.5943 C.3       1 <0>        -0.1266
     23 C16         5.2680  -11.7804   -0.3921 C.3       1 <0>        -0.0840
     24 C17         5.6348  -11.2000   -1.7411 C.ar      1 <0>        -0.0912
     25 C18         4.5023  -11.0998   -2.5321 C.ar      1 <0>        -0.1148
     26 C19         4.5984  -10.5929   -3.8169 C.ar      1 <0>        -0.0813
     27 C20         5.8215  -10.1863   -4.3142 C.ar      1 <0>        -0.1259
     28 C21         6.9533  -10.2850   -3.5272 C.ar      1 <0>        -0.1115
     29 C22         6.8606  -10.7919   -2.2391 C.ar      1 <0>        -0.1149
     30 H2         -1.0597    1.8465   -0.2310 H         1 <0>         0.0717
     31 H3          0.4913    1.9421    0.6370 H         1 <0>         0.0674
     32 H4          0.4717    1.7948   -1.1368 H         1 <0>         0.0696
     33 H5          0.0126   -0.0041    2.0619 H         1 <0>         0.1381
     34 H6          0.0498   -2.4837    2.1899 H         1 <0>         0.1357
     35 H7         -0.0250   -0.3342   -2.1950 H         1 <0>         0.1584
     36 H8          0.1455   -4.5634    0.9640 H         1 <0>         0.4156
     37 H9         -1.0170   -6.6220   -0.3843 H         1 <0>         0.1040
     38 H10         1.9987   -6.6312   -0.8569 H         1 <0>         0.0768
     39 H11         1.2038   -6.4697    0.7281 H         1 <0>         0.0800
     40 H12         1.9342   -8.8283    0.2224 H         1 <0>         0.0802
     41 H13         0.1773   -8.6819    0.4852 H         1 <0>         0.0760
     42 H14        -0.3416   -8.8507   -3.3038 H         1 <0>         0.1008
     43 H15        -1.3056   -8.6965   -1.8124 H         1 <0>         0.0687
     44 H16        -1.1169   -6.4926   -2.8677 H         1 <0>         0.0867
     45 H17         0.6558   -6.6444   -2.9378 H         1 <0>         0.0770
     46 H18         2.6828  -10.1337   -0.3649 H         1 <0>         0.3942
     47 H19         3.2679  -12.3162    0.2997 H         1 <0>         0.0848
     48 H20         3.9803  -13.4776   -0.8694 H         1 <0>         0.0909
     49 H21         5.2112  -10.9904    0.3567 H         1 <0>         0.0792
     50 H22         5.9971  -12.5337   -0.0937 H         1 <0>         0.0803
     51 H23         3.7144  -10.5154   -4.4324 H         1 <0>         0.1259
     52 H24         5.8931   -9.7919   -5.3171 H         1 <0>         0.1237
     53 H25         7.9103   -9.9678   -3.9145 H         1 <0>         0.1236
     54 H26         7.7446  -10.8699   -1.6235 H         1 <0>         0.1200
@<TRIPOS>BOND
     1    1    2 1
     2    1   30 1
     3    1   31 1
     4    1   32 1
     5    2    7 ar
     6    2    3 ar
     7    3    4 ar
     8    3   33 1
     9    4    5 ar
    10    4   34 1
    11    5    6 ar
    12    5    8 1
    13    6    7 ar
    14    7   35 1
    15    8    9 am
    16    8   36 1
    17    9   10 2
    18    9   11 1
    19   11   16 1
    20   11   12 1
    21   11   37 1
    22   12   13 1
    23   12   38 1
    24   12   39 1
    25   13   14 1
    26   13   40 1
    27   13   41 1
    28   14   15 1
    29   14   17 am
    30   15   16 1
    31   15   42 1
    32   15   43 1
    33   16   44 1
    34   16   45 1
    35   17   18 2
    36   17   19 am
    37   19   20 1
    38   19   46 1
    39   20   21 1
    40   20   25 1
    41   20   22 1
    42   22   23 1
    43   22   47 1
    44   22   48 1
    45   23   24 1
    46   23   49 1
    47   23   50 1
    48   24   29 ar
    49   24   25 ar
    50   25   26 ar
    51   26   27 ar
    52   26   51 1
    53   27   28 ar
    54   27   52 1
    55   28   29 ar
    56   28   53 1
    57   29   54 1
@<TRIPOS>MOLECULE
ZINC32072467
   50    53     0     0     0
SMALL
USER_CHARGES

@<TRIPOS>ATOM
      1 C1         -0.0187    1.5258    0.0104 C.3       1 <0>        -0.1457
      2 C2          0.0021   -0.0041    0.0020 C.3       1 <0>        -0.0556
      3 C3          0.7421   -0.5109    1.2415 C.3       1 <0>        -0.1450
      4 C4         -1.4117   -0.5257    0.0127 C.ar      1 <0>        -0.0964
      5 C5         -2.2458   -0.1961    1.0617 C.ar      1 <0>        -0.0772
      6 C6         -3.5556   -0.6446    1.1275 C.ar      1 <0>        -0.1326
      7 C7         -4.0067   -1.4519    0.0820 C.ar      1 <0>         0.1449
      8 C8         -3.1508   -1.7795   -0.9772 C.ar      1 <0>        -0.1309
      9 C9         -1.8509   -1.3246   -1.0375 C.ar      1 <0>        -0.0455
     10 C10        -3.9455   -2.6411   -1.9051 C.3       1 <0>         0.0411
     11 C11        -4.0744   -1.9969   -3.2840 C.3       1 <0>        -0.1185
     12 C12        -2.8376   -2.2229   -4.1086 C.2       1 <0>         0.5433
     13 O1         -2.4478   -1.3355   -4.8378 O.2       1 <0>        -0.5044
     14 N1         -2.1478   -3.3820   -4.0637 N.am      1 <0>        -0.6466
     15 C13        -2.4830   -4.3162   -3.0838 C.2       1 <0>         0.3353
     16 C14        -3.3293   -4.0047   -2.0497 C.2       1 <0>        -0.2621
     17 C15        -3.4642   -5.1333   -1.2549 C.2       1 <0>         0.0949
     18 N2         -2.7267   -6.0879   -1.7719 N.2       1 <0>        -0.2771
     19 N3         -2.0924   -5.5878   -2.9207 N.pl3     1 <0>        -0.3510
     20 C16        -1.1687   -6.3247   -3.7867 C.3       1 <0>         0.1736
     21 C17         0.1860   -5.6139   -3.8094 C.3       1 <0>        -0.1639
     22 C18        -0.9899   -7.7461   -3.2494 C.3       1 <0>        -0.1409
     23 C19        -1.7374   -6.3838   -5.2059 C.3       1 <0>        -0.1654
     24 C20        -5.3048   -2.7484   -1.2491 C.2       1 <0>         0.5434
     25 O2         -6.2626   -3.3623   -1.6698 O.2       1 <0>        -0.4802
     26 N4         -5.2491   -2.0314   -0.1070 N.am      1 <0>        -0.6583
     27 H1          1.0039    1.9031    0.0027 H         1 <0>         0.0586
     28 H2         -0.5459    1.8868   -0.8726 H         1 <0>         0.0570
     29 H3         -0.5289    1.8773    0.9072 H         1 <0>         0.0575
     30 H4          0.5123   -0.3556   -0.8948 H         1 <0>         0.0759
     31 H5          0.7568   -1.6008    1.2356 H         1 <0>         0.0554
     32 H6          1.7647   -0.1336    1.2338 H         1 <0>         0.0585
     33 H7          0.2319   -0.1594    2.1383 H         1 <0>         0.0576
     34 H8         -1.8663    0.4300    1.8557 H         1 <0>         0.1278
     35 H9         -4.1999   -0.3807    1.9532 H         1 <0>         0.1368
     36 H10        -1.2015   -1.5801   -1.8618 H         1 <0>         0.1254
     37 H11        -4.9319   -2.4279   -3.8008 H         1 <0>         0.1209
     38 H12        -4.2327   -0.9252   -3.1640 H         1 <0>         0.1194
     39 H13        -1.4360   -3.5612   -4.6979 H         1 <0>         0.4134
     40 H14        -4.0705   -5.2126   -0.3647 H         1 <0>         0.1830
     41 H15         0.5912   -5.5719   -2.7983 H         1 <0>         0.0725
     42 H16         0.8733   -6.1622   -4.4537 H         1 <0>         0.0883
     43 H17         0.0587   -4.6014   -4.1922 H         1 <0>         0.0567
     44 H18        -1.9550   -8.2525   -3.2333 H         1 <0>         0.0721
     45 H19        -0.3026   -8.2944   -3.8937 H         1 <0>         0.0760
     46 H20        -0.5847   -7.7040   -2.2384 H         1 <0>         0.0718
     47 H21        -1.8647   -5.3712   -5.5887 H         1 <0>         0.0587
     48 H22        -1.0501   -6.9321   -5.8502 H         1 <0>         0.0874
     49 H23        -2.7025   -6.8902   -5.1898 H         1 <0>         0.0721
     50 H24        -5.9923   -1.9337    0.5087 H         1 <0>         0.4179
@<TRIPOS>BOND
     1    1    2 1
     2    1   27 1
     3    1   28 1
     4    1   29 1
     5    2    3 1
     6    2    4 1
     7    2   30 1
     8    3   31 1
     9    3   32 1
    10    3   33 1
    11    4    9 ar
    12    4    5 ar
    13    5    6 ar
    14    5   34 1
    15    6    7 ar
    16    6   35 1
    17    7   26 1
    18    7    8 ar
    19    8    9 ar
    20    8   10 1
    21    9   36 1
    22   10   16 1
    23   10   11 1
    24   10   24 1
    25   11   12 1
    26   11   37 1
    27   11   38 1
    28   12   13 2
    29   12   14 am
    30   14   15 1
    31   14   39 1
    32   15   19 1
    33   15   16 2
    34   16   17 1
    35   17   18 2
    36   17   40 1
    37   18   19 1
    38   19   20 1
    39   20   21 1
    40   20   22 1
    41   20   23 1
    42   21   41 1
    43   21   42 1
    44   21   43 1
    45   22   44 1
    46   22   45 1
    47   22   46 1
    48   23   47 1
    49   23   48 1
    50   23   49 1
    51   24   25 2
    52   24   26 am
    53   26   50 1
@<TRIPOS>MOLECULE
ZINC05082412
   38    40     0     0     0
SMALL
USER_CHARGES
N-(4-amino-2-cyclopentylsulfanyl-6-oxo-1H-pyrimidin-5-yl)-5-bromo-furan-2-carboxamide
@<TRIPOS>ATOM
      1 C1          0.0684    2.6394   -2.0432 C.2       1 <0>        -0.1147
      2 C2         -0.8286    1.6391   -1.6389 C.2       1 <0>        -0.1615
      3 C3         -1.3073    2.0001   -0.4261 C.2       1 <0>        -0.0057
      4 O1         -0.7422    3.1609   -0.0683 O.3       1 <0>        -0.1495
      5 C4          0.0974    3.5692   -1.0429 C.2       1 <0>        -0.0504
      6 C5          0.8998    4.7955   -1.0303 C.2       1 <0>         0.6080
      7 O2          1.6246    5.0585   -1.9727 O.2       1 <0>        -0.4885
      8 N1          0.8355    5.6321    0.0244 N.am      1 <0>        -0.6335
      9 C6          1.6834    6.7552    0.0852 C.2       1 <0>        -0.1479
     10 C7          1.1554    8.0385    0.1825 C.2       1 <0>         0.4668
     11 N2          1.9788    9.0914    0.2390 N.2       1 <0>        -0.5625
     12 C8          3.2858    8.9381    0.2042 C.2       1 <0>         0.4076
     13 N3          3.8542    7.7038    0.1098 N.am      1 <0>        -0.6237
     14 H1          4.8498    7.6140    0.0813 H         1 <0>         0.4284
     15 C9          3.0772    6.6018    0.0546 C.2       1 <0>         0.5498
     16 O3          3.5787    5.4910   -0.0253 O.2       1 <0>        -0.5247
     17 S1          4.3227   10.3606    0.2818 S.3       1 <0>         0.0073
     18 C10         3.0669   11.6592    0.3938 C.3       1 <0>        -0.0694
     19 C11         2.2693   11.7381   -0.9243 C.3       1 <0>        -0.1118
     20 C12         2.0094   13.2532   -1.1201 C.3       1 <0>        -0.1240
     21 C13         3.3303   13.8939   -0.6263 C.3       1 <0>        -0.1238
     22 C14         3.7409   13.0294    0.5836 C.3       1 <0>        -0.1071
     23 N4         -0.2146    8.2250    0.2213 N.pl3     1 <0>        -0.8230
     24 Br1        -2.5635    1.0249    0.5971 Br        1 <0>         0.0655
     25 H2          0.6273    2.6689   -2.9668 H         1 <0>         0.1715
     26 H3         -1.0910    0.7504   -2.1936 H         1 <0>         0.1706
     27 H4          0.2052    5.4608    0.7416 H         1 <0>         0.4055
     28 H5          2.3932   11.4560    1.2263 H         1 <0>         0.1130
     29 H6          2.8589   11.3424   -1.7512 H         1 <0>         0.0743
     30 H7          1.3273   11.1973   -0.8331 H         1 <0>         0.0845
     31 H8          1.1685   13.5823   -0.5095 H         1 <0>         0.0704
     32 H9          1.8364   13.4859   -2.1708 H         1 <0>         0.0722
     33 H10         3.1619   14.9258   -0.3182 H         1 <0>         0.0728
     34 H11         4.0916   13.8467   -1.4049 H         1 <0>         0.0709
     35 H12         3.3938   13.4915    1.5077 H         1 <0>         0.0847
     36 H13         4.8243   12.9122    0.6091 H         1 <0>         0.0737
     37 H14        -0.8096    7.4600    0.1805 H         1 <0>         0.4139
     38 H15        -0.5804    9.1208    0.2892 H         1 <0>         0.4107
@<TRIPOS>BOND
     1    1    5 2
     2    1    2 1
     3    1   25 1
     4    2    3 2
     5    2   26 1
     6    3    4 1
     7    3   24 1
     8    4    5 1
     9    5    6 1
    10    6    7 2
    11    6    8 am
    12    8    9 1
    13    8   27 1
    14    9   15 1
    15    9   10 2
    16   10   11 1
    17   10   23 1
    18   11   12 2
    19   12   13 1
    20   12   17 1
    21   13   14 1
    22   13   15 am
    23   15   16 2
    24   17   18 1
    25   18   22 1
    26   18   19 1
    27   18   28 1
    28   19   20 1
    29   19   29 1
    30   19   30 1
    31   20   21 1
    32   20   31 1
    33   20   32 1
    34   21   22 1
    35   21   33 1
    36   21   34 1
    37   22   35 1
    38   22   36 1
    39   23   37 1
    40   23   38 1
@<TRIPOS>MOLECULE
ZINC05278297
   45    47     0     0     0
SMALL
USER_CHARGES
(2S)-2-(4,6-diaminopyrimidin-2-yl)sulfanyl-2-phenyl-1-(1-piperidyl)ethanone
@<TRIPOS>ATOM
      1 C1         -2.0118    2.4634    3.5227 C.ar      1 <0>        -0.1114
      2 C2         -1.8696    1.1074    3.2951 C.ar      1 <0>        -0.1271
      3 C3         -1.2225    0.6616    2.1578 C.ar      1 <0>        -0.0692
      4 C4         -0.7181    1.5718    1.2479 C.ar      1 <0>        -0.0704
      5 C5         -0.8557    2.9279    1.4781 C.ar      1 <0>        -0.0971
      6 C6         -1.5066    3.3737    2.6133 C.ar      1 <0>        -0.1212
      7 C7         -0.0127    1.0858    0.0080 C.3       1 <0>        -0.0724
      8 H1          0.0021   -0.0041    0.0020 H         1 <0>         0.1279
      9 C8         -0.7416    1.5850   -1.2129 C.2       1 <0>         0.5421
     10 O1         -0.3275    2.5548   -1.8121 O.2       1 <0>        -0.5209
     11 N1         -1.8536    0.9539   -1.6389 N.am      1 <0>        -0.6006
     12 C9         -2.3640   -0.2258   -0.9271 C.3       1 <0>         0.0998
     13 C10        -3.8393    0.0170   -0.5742 C.3       1 <0>        -0.1332
     14 C11        -4.6121    0.3647   -1.8486 C.3       1 <0>        -0.1212
     15 C12        -4.0449    1.6496   -2.4565 C.3       1 <0>        -0.1349
     16 C13        -2.5751    1.4287   -2.8275 C.3       1 <0>         0.1110
     17 S1          1.6854    1.7123   -0.0048 S.3       1 <0>         0.0887
     18 C14         2.3304    0.8768    1.4060 C.ar      1 <0>         0.3677
     19 N2          1.5374    0.0715    2.0976 N.ar      1 <0>        -0.6059
     20 C15         1.9918   -0.5802    3.1655 C.ar      1 <0>         0.4777
     21 C16         3.3145   -0.3977    3.5584 C.ar      1 <0>        -0.3706
     22 C17         4.1157    0.4603    2.8106 C.ar      1 <0>         0.4765
     23 N3          3.5945    1.0744    1.7510 N.ar      1 <0>        -0.5911
     24 N4          5.4391    0.6721    3.1644 N.pl3     1 <0>        -0.8363
     25 N5          1.1570   -1.4250    3.8804 N.pl3     1 <0>        -0.8367
     26 H2         -2.5180    2.8117    4.4109 H         1 <0>         0.1198
     27 H3         -2.2643    0.3962    4.0056 H         1 <0>         0.1204
     28 H4         -1.1113   -0.3979    1.9800 H         1 <0>         0.1198
     29 H5         -0.4578    3.6391    0.7694 H         1 <0>         0.1266
     30 H6         -1.6181    4.4331    2.7909 H         1 <0>         0.1224
     31 H7         -2.2782   -1.1041   -1.5669 H         1 <0>         0.0733
     32 H8         -1.7888   -0.3788   -0.0139 H         1 <0>         0.0878
     33 H9         -3.9156    0.8420    0.1340 H         1 <0>         0.0699
     34 H10        -4.2589   -0.8852   -0.1291 H         1 <0>         0.0764
     35 H11        -5.6647    0.5114   -1.6064 H         1 <0>         0.0671
     36 H12        -4.5147   -0.4502   -2.5659 H         1 <0>         0.0653
     37 H13        -4.1192    2.4592   -1.7306 H         1 <0>         0.0675
     38 H14        -4.6108    1.9094   -3.3512 H         1 <0>         0.0773
     39 H15        -2.1392    2.3677   -3.1686 H         1 <0>         0.0952
     40 H16        -2.5061    0.6826   -3.6191 H         1 <0>         0.0710
     41 H17         3.7098   -0.9096    4.4234 H         1 <0>         0.1345
     42 H18         5.9918    1.2711    2.6385 H         1 <0>         0.4082
     43 H19         5.8125    0.2212    3.9378 H         1 <0>         0.4113
     44 H20         1.4936   -1.8935    4.6602 H         1 <0>         0.4109
     45 H21         0.2363   -1.5475    3.6009 H         1 <0>         0.4040
@<TRIPOS>BOND
     1    1    6 ar
     2    1    2 ar
     3    1   26 1
     4    2    3 ar
     5    2   27 1
     6    3    4 ar
     7    3   28 1
     8    4    5 ar
     9    4    7 1
    10    5    6 ar
    11    5   29 1
    12    6   30 1
    13    7    8 1
    14    7    9 1
    15    7   17 1
    16    9   10 2
    17    9   11 am
    18   11   16 1
    19   11   12 1
    20   12   13 1
    21   12   31 1
    22   12   32 1
    23   13   14 1
    24   13   33 1
    25   13   34 1
    26   14   15 1
    27   14   35 1
    28   14   36 1
    29   15   16 1
    30   15   37 1
    31   15   38 1
    32   16   39 1
    33   16   40 1
    34   17   18 1
    35   18   23 ar
    36   18   19 ar
    37   19   20 ar
    38   20   21 ar
    39   20   25 1
    40   21   22 ar
    41   21   41 1
    42   22   23 ar
    43   22   24 1
    44   24   42 1
    45   24   43 1
    46   25   44 1
    47   25   45 1
@<TRIPOS>MOLECULE
ZINC38985177
   42    44     0     0     0
SMALL
USER_CHARGES

@<TRIPOS>ATOM
      1 C1         -0.4194    1.5048    3.6492 C.3       1 <0>        -0.1195
      2 C2         -1.4399    1.7731    2.5733 C.2       1 <0>        -0.1173
      3 C3         -1.3073    2.8146    1.7898 C.2       1 <0>        -0.1630
      4 C4         -2.6129    0.8433    2.3986 C.3       1 <0>        -0.0715
      5 S1         -2.0566   -0.6888    1.6024 S.3       1 <0>        -0.1461
      6 C5         -3.5317   -1.7447    1.6039 C.3       1 <0>         0.2032
      7 H1         -4.0471   -1.6770    2.5619 H         1 <0>         0.0919
      8 N1         -4.4445   -1.3645    0.4941 N.3       1 <0>        -0.4685
      9 N2         -5.2206   -2.5936    0.2664 N.3       1 <0>        -0.4897
     10 C6         -4.2421   -3.6890    0.4534 C.3       1 <0>         0.2608
     11 H2         -3.8362   -3.9960   -0.5106 H         1 <0>         0.1243
     12 N3         -3.1639   -3.1494    1.3112 N.3       1 <0>        -0.3365
     13 N4         -1.8773   -3.2217    0.6376 N.3       1 <0>        -0.6818
     14 C7         -4.9125   -4.8791    1.1426 C.3       1 <0>        -0.0436
     15 H3         -4.1748   -5.6397    1.3985 H         1 <0>         0.1648
     16 C8         -6.0025   -5.4642    0.2623 C.2       1 <0>        -0.1190
     17 C9         -7.1248   -5.3057    0.9900 C.2       1 <0>         0.0009
     18 N5         -6.8402   -4.7074    2.1765 N.2       1 <0>        -0.1502
     19 N6         -5.6443   -4.4404    2.3424 N.2       1 <0>        -0.1510
     20 C10        -8.4807   -5.7246    0.5570 C.ar      1 <0>        -0.0259
     21 C11        -8.6609   -6.3365   -0.6820 C.ar      1 <0>        -0.0880
     22 C12        -9.9239   -6.7243   -1.0802 C.ar      1 <0>        -0.1087
     23 C13       -11.0111   -6.5060   -0.2512 C.ar      1 <0>        -0.0254
     24 C14       -10.8372   -5.8986    0.9806 C.ar      1 <0>        -0.1100
     25 C15        -9.5773   -5.5127    1.3905 C.ar      1 <0>        -0.0757
     26 Cl1       -12.5977   -6.9952   -0.7584 Cl        1 <0>        -0.0628
     27 H4          0.3485    2.2780    3.6226 H         1 <0>         0.0658
     28 H5         -0.9082    1.5117    4.6234 H         1 <0>         0.0662
     29 H6          0.0397    0.5308    3.4798 H         1 <0>         0.0714
     30 H7         -2.0387    3.0069    1.0188 H         1 <0>         0.1014
     31 H8         -0.4667    3.4810    1.9150 H         1 <0>         0.1064
     32 H9         -3.0410    0.6113    3.3738 H         1 <0>         0.0864
     33 H10        -3.3674    1.3233    1.7755 H         1 <0>         0.0880
     34 H11        -5.0466   -0.6019    0.7662 H         1 <0>         0.3454
     35 H12        -5.9793   -2.6698    0.9272 H         1 <0>         0.3177
     36 H13        -1.1321   -2.9223    1.2484 H         1 <0>         0.3668
     37 H14        -1.7051   -4.1516    0.2859 H         1 <0>         0.3551
     38 H15        -5.9015   -5.9045   -0.7187 H         1 <0>         0.1805
     39 H16        -7.8136   -6.5066   -1.3297 H         1 <0>         0.1348
     40 H17       -10.0647   -7.1986   -2.0402 H         1 <0>         0.1400
     41 H18       -11.6884   -5.7301    1.6236 H         1 <0>         0.1398
     42 H19        -9.4420   -5.0433    2.3537 H         1 <0>         0.1433
@<TRIPOS>BOND
     1    1    2 1
     2    1   27 1
     3    1   28 1
     4    1   29 1
     5    2    3 2
     6    2    4 1
     7    3   30 1
     8    3   31 1
     9    4    5 1
    10    4   32 1
    11    4   33 1
    12    5    6 1
    13    6    7 1
    14    6   12 1
    15    6    8 1
    16    8    9 1
    17    8   34 1
    18    9   10 1
    19    9   35 1
    20   10   11 1
    21   10   12 1
    22   10   14 1
    23   12   13 1
    24   13   36 1
    25   13   37 1
    26   14   15 1
    27   14   19 1
    28   14   16 1
    29   16   17 2
    30   16   38 1
    31   17   18 1
    32   17   20 1
    33   18   19 2
    34   20   25 ar
    35   20   21 ar
    36   21   22 ar
    37   21   39 1
    38   22   23 ar
    39   22   40 1
    40   23   24 ar
    41   23   26 1
    42   24   25 ar
    43   24   41 1
    44   25   42 1
@<TRIPOS>MOLECULE
ZINC43043375
   42    43     0     0     0
SMALL
USER_CHARGES

@<TRIPOS>ATOM
      1 C1         -0.0187    1.5258    0.0104 C.3       1 <0>        -0.1519
      2 C2          0.0021   -0.0041    0.0020 C.3       1 <0>        -0.0847
      3 H1         -1.0205   -0.3814    0.0098 H         1 <0>         0.0587
      4 C3          0.7182   -0.4975   -1.2568 C.3       1 <0>        -0.1177
      5 C4          0.7390   -2.0273   -1.2652 C.3       1 <0>        -0.1179
      6 C5          1.4790   -2.5342   -0.0257 C.3       1 <0>        -0.1343
      7 C6          0.7628   -2.0407    1.2331 C.3       1 <0>         0.1676
      8 H2          1.2900   -2.4018    2.1162 H         1 <0>         0.0942
      9 C7          0.7421   -0.5109    1.2415 C.3       1 <0>        -0.0958
     10 H3          1.7647   -0.1336    1.2338 H         1 <0>         0.0911
     11 C8          0.0259   -0.0175    2.5003 C.3       1 <0>        -0.1501
     12 N1         -0.6116   -2.5478    1.2435 N.am      1 <0>        -0.7331
     13 C9         -0.8730   -3.7762    1.7327 C.2       1 <0>         0.7135
     14 O1          0.0319   -4.4634    2.1654 O.2       1 <0>        -0.5625
     15 N2         -2.1374   -4.2427    1.7423 N.am      1 <0>        -0.5282
     16 N3         -3.1800   -3.4507    1.2437 N.am      1 <0>        -0.5321
     17 C10        -4.4445   -3.9172    1.2533 C.2       1 <0>         0.5964
     18 O2         -4.6805   -5.0264    1.6950 O.2       1 <0>        -0.5093
     19 C11        -5.5360   -3.0882    0.7313 C.2       1 <0>        -0.0476
     20 C12        -6.8703   -3.4328    0.6845 C.2       1 <0>        -0.0593
     21 C13        -7.5538   -2.3536    0.1147 C.2       1 <0>        -0.1831
     22 C14        -6.6449   -1.3898   -0.1702 C.2       1 <0>         0.0775
     23 N4         -5.4156   -1.8222    0.2046 N.pl3     1 <0>        -0.5342
     24 H4         -4.5887   -1.3232    0.1148 H         1 <0>         0.4210
     25 Br1        -9.4155   -2.2571   -0.2025 Br        1 <0>        -0.0153
     26 H5          1.0039    1.9031    0.0027 H         1 <0>         0.0583
     27 H6         -0.5459    1.8868   -0.8726 H         1 <0>         0.0556
     28 H7         -0.5289    1.8773    0.9072 H         1 <0>         0.0593
     29 H8          0.1910   -0.1364   -2.1398 H         1 <0>         0.0638
     30 H9          1.7408   -0.1202   -1.2645 H         1 <0>         0.0671
     31 H10        -0.2836   -2.4046   -1.2575 H         1 <0>         0.0568
     32 H11         1.2492   -2.3788   -2.1620 H         1 <0>         0.0646
     33 H12         1.4937   -3.6240   -0.0317 H         1 <0>         0.0711
     34 H13         2.5015   -2.1569   -0.0334 H         1 <0>         0.0757
     35 H14        -0.9967   -0.3948    2.5081 H         1 <0>         0.0504
     36 H15         0.5531   -0.3786    3.3834 H         1 <0>         0.0588
     37 H16         0.0111    1.0724    2.5063 H         1 <0>         0.0633
     38 H17        -1.3335   -1.9995    0.8983 H         1 <0>         0.3857
     39 H18        -2.3255   -5.1267    2.0944 H         1 <0>         0.4460
     40 H19        -2.9919   -2.5667    0.8916 H         1 <0>         0.4112
     41 H20        -7.3055   -4.3612    1.0235 H         1 <0>         0.1624
     42 H21        -6.8643   -0.4323   -0.6190 H         1 <0>         0.1869
@<TRIPOS>BOND
     1    1    2 1
     2    1   26 1
     3    1   27 1
     4    1   28 1
     5    2    3 1
     6    2    9 1
     7    2    4 1
     8    4    5 1
     9    4   29 1
    10    4   30 1
    11    5    6 1
    12    5   31 1
    13    5   32 1
    14    6    7 1
    15    6   33 1
    16    6   34 1
    17    7    8 1
    18    7    9 1
    19    7   12 1
    20    9   10 1
    21    9   11 1
    22   11   35 1
    23   11   36 1
    24   11   37 1
    25   12   13 am
    26   12   38 1
    27   13   14 2
    28   13   15 am
    29   15   16 1
    30   15   39 1
    31   16   17 am
    32   16   40 1
    33   17   18 2
    34   17   19 1
    35   19   23 1
    36   19   20 2
    37   20   21 1
    38   20   41 1
    39   21   22 2
    40   21   25 1
    41   22   23 1
    42   22   42 1
    43   23   24 1
@<TRIPOS>MOLECULE
ZINC18033568
   46    48     0     0     0
SMALL
USER_CHARGES

@<TRIPOS>ATOM
      1 C1         -0.0187    1.5258    0.0104 C.3       1 <0>        -0.1505
      2 C2          0.0021   -0.0041    0.0020 C.3       1 <0>         0.0675
      3 H1          0.5122   -0.3558   -0.8947 H         1 <0>         0.0708
      4 C3         -1.4341   -0.5342    0.0135 C.3       1 <0>         0.0859
      5 H2         -1.9573   -0.1498    0.8890 H         1 <0>         0.0829
      6 C4         -1.4047   -2.0648    0.0658 C.3       1 <0>         0.1222
      7 H3         -0.9254   -2.4512   -0.8337 H         1 <0>         0.0800
      8 C5         -0.6118   -2.5074    1.2994 C.3       1 <0>         0.0421
      9 H4         -0.5387   -3.5949    1.3145 H         1 <0>         0.0820
     10 C6          0.7926   -1.9011    1.2382 C.3       1 <0>         0.2823
     11 H5          1.3132   -2.2777    0.3578 H         1 <0>         0.0929
     12 O1          0.6927   -0.4777    1.1599 O.3       1 <0>        -0.3791
     13 N1          1.5383   -2.2732    2.4431 N.pl3     1 <0>        -0.7153
     14 C7          2.9075   -2.5147    2.3677 C.ar      1 <0>         0.2476
     15 C8          3.5671   -2.3965    1.1476 C.ar      1 <0>        -0.1989
     16 C9          4.9204   -2.6344    1.0689 C.ar      1 <0>        -0.0019
     17 C10         5.6333   -2.9955    2.2175 C.ar      1 <0>        -0.0105
     18 C11         4.9667   -3.1132    3.4420 C.ar      1 <0>        -0.0409
     19 C12         3.6143   -2.8681    3.5136 C.ar      1 <0>        -0.1940
     20 N2          6.9749   -3.2326    2.1434 N.2       1 <0>        -0.1994
     21 N3          7.6305   -3.5654    3.2034 N.2       1 <0>        -0.2354
     22 C13         8.9748   -3.8030    3.1292 C.ar      1 <0>         0.0515
     23 C14         9.6431   -3.6807    1.9080 C.ar      1 <0>        -0.1045
     24 C15        10.9993   -3.9220    1.8408 C.ar      1 <0>        -0.1240
     25 C16        11.6982   -4.2844    2.9789 C.ar      1 <0>        -0.0979
     26 C17        11.0431   -4.4079    4.1916 C.ar      1 <0>        -0.1234
     27 C18         9.6883   -4.1637    4.2753 C.ar      1 <0>        -0.0644
     28 O2         -1.2767   -2.0570    2.4813 O.3       1 <0>        -0.5347
     29 O3         -2.7403   -2.5660    0.1487 O.3       1 <0>        -0.5375
     30 O4         -2.1097   -0.1086   -1.1716 O.3       1 <0>        -0.5501
     31 H6          1.0039    1.9031    0.0027 H         1 <0>         0.0742
     32 H7         -0.5459    1.8868   -0.8726 H         1 <0>         0.0778
     33 H8         -0.5289    1.8773    0.9072 H         1 <0>         0.0697
     34 H9          1.0782   -2.3513    3.2935 H         1 <0>         0.4037
     35 H10         3.0160   -2.1181    0.2614 H         1 <0>         0.1308
     36 H11         5.4313   -2.5429    0.1218 H         1 <0>         0.1377
     37 H12         5.5135   -3.3921    4.3307 H         1 <0>         0.1402
     38 H13         3.0998   -2.9545    4.4593 H         1 <0>         0.1298
     39 H14         9.0988   -3.3983    1.0189 H         1 <0>         0.1353
     40 H15        11.5170   -3.8282    0.8976 H         1 <0>         0.1270
     41 H16        12.7602   -4.4721    2.9202 H         1 <0>         0.1275
     42 H17        11.5950   -4.6914    5.0756 H         1 <0>         0.1321
     43 H18         9.1793   -4.2557    5.2233 H         1 <0>         0.1337
     44 H19        -0.8288   -2.3026    3.3024 H         1 <0>         0.3748
     45 H20        -2.7968   -3.5307    0.1853 H         1 <0>         0.3795
     46 H21        -2.1614    0.8519   -1.2715 H         1 <0>         0.3809
@<TRIPOS>BOND
     1    1    2 1
     2    1   31 1
     3    1   32 1
     4    1   33 1
     5    2    3 1
     6    2   12 1
     7    2    4 1
     8    4    5 1
     9    4    6 1
    10    4   30 1
    11    6    7 1
    12    6    8 1
    13    6   29 1
    14    8    9 1
    15    8   10 1
    16    8   28 1
    17   10   11 1
    18   10   12 1
    19   10   13 1
    20   13   14 1
    21   13   34 1
    22   14   19 ar
    23   14   15 ar
    24   15   16 ar
    25   15   35 1
    26   16   17 ar
    27   16   36 1
    28   17   18 ar
    29   17   20 1
    30   18   19 ar
    31   18   37 1
    32   19   38 1
    33   20   21 2
    34   21   22 1
    35   22   27 ar
    36   22   23 ar
    37   23   24 ar
    38   23   39 1
    39   24   25 ar
    40   24   40 1
    41   25   26 ar
    42   25   41 1
    43   26   27 ar
    44   26   42 1
    45   27   43 1
    46   28   44 1
    47   29   45 1
    48   30   46 1
@<TRIPOS>MOLECULE
ZINC02316281
   47    49     0     0     0
SMALL
USER_CHARGES
10-[(2-fluorobenzoyl)thiocarbamoylamino]-9-thiabicyclo[6.3.0]undeca-10,12-diene-11-carboxamide
@<TRIPOS>ATOM
      1 C1         -7.6136    0.3188    8.7689 C.ar      1 <0>        -0.1346
      2 C2         -8.2776   -0.8727    9.0075 C.ar      1 <0>        -0.0531
      3 C3         -8.0322   -1.9793    8.2168 C.ar      1 <0>        -0.1596
      4 C4         -7.1198   -1.9031    7.1801 C.ar      1 <0>         0.1709
      5 C5         -6.4465   -0.7021    6.9343 C.ar      1 <0>        -0.1795
      6 C6         -6.6978    0.4092    7.7426 C.ar      1 <0>        -0.0608
      7 C7         -5.4710   -0.6110    5.8302 C.2       1 <0>         0.5378
      8 O1         -5.2511   -1.5813    5.1320 O.2       1 <0>        -0.3913
      9 N1         -4.8242    0.5480    5.5964 N.am      1 <0>        -0.6325
     10 C8         -3.9335    0.6312    4.5883 C.2       1 <0>         0.4774
     11 S1         -3.6237   -0.7354    3.6048 S.2       1 <0>        -0.3731
     12 N2         -3.2867    1.7903    4.3544 N.pl3     1 <0>        -0.5552
     13 C9         -2.3710    1.8758    3.3180 C.2       1 <0>         0.0201
     14 C10        -1.6202    2.9639    2.9218 C.2       1 <0>        -0.1990
     15 C11        -0.6906    2.7959    1.7979 C.2       1 <0>        -0.0705
     16 C12        -0.7424    1.5836    1.2240 C.2       1 <0>        -0.2225
     17 S2         -1.8919    0.6460    2.1987 S.3       1 <0>         0.3095
     18 C13        -0.0127    1.0858    0.0080 C.3       1 <0>        -0.0549
     19 C14        -0.7836    1.6088   -1.2173 C.3       1 <0>        -0.1147
     20 C15        -0.9344    3.1291   -1.0767 C.3       1 <0>        -0.1313
     21 C16         0.4771    3.6749   -1.0769 C.3       1 <0>        -0.1189
     22 C17         1.1642    3.6172    0.2767 C.3       1 <0>        -0.1262
     23 C18         0.2252    3.9628    1.4257 C.3       1 <0>        -0.0582
     24 C19        -1.7428    4.2521    3.6102 C.2       1 <0>         0.5776
     25 O2         -2.5539    5.0736    3.2244 O.2       1 <0>        -0.5331
     26 N3         -0.9573    4.5271    4.6704 N.am      1 <0>        -0.8501
     27 F1         -6.8794   -2.9853    6.4079 F         1 <0>        -0.1086
     28 H1         -7.8108    1.1788    9.3916 H         1 <0>         0.1413
     29 H2         -8.9908   -0.9376    9.8160 H         1 <0>         0.1441
     30 H3         -8.5536   -2.9054    8.4090 H         1 <0>         0.1496
     31 H4         -6.1783    1.3386    7.5614 H         1 <0>         0.1319
     32 H5         -4.9997    1.3224    6.1536 H         1 <0>         0.4138
     33 H6         -3.4622    2.5646    4.9117 H         1 <0>         0.4124
     34 H7          0.0021   -0.0041    0.0020 H         1 <0>         0.0728
     35 H8          1.0064    1.4724    0.0004 H         1 <0>         0.0966
     36 H9         -0.2294    1.3769   -2.1268 H         1 <0>         0.0676
     37 H10        -1.7686    1.1439   -1.2578 H         1 <0>         0.0621
     38 H11        -1.4948    3.5323   -1.9202 H         1 <0>         0.0618
     39 H12        -1.4333    3.3737   -0.1390 H         1 <0>         0.0812
     40 H13         1.0698    3.1038   -1.7915 H         1 <0>         0.0613
     41 H14         0.4476    4.7133   -1.4071 H         1 <0>         0.0521
     42 H15         1.5543    2.6112    0.4311 H         1 <0>         0.0788
     43 H16         1.9972    4.3201    0.2791 H         1 <0>         0.0629
     44 H17         0.8194    4.2375    2.2972 H         1 <0>         0.0674
     45 H18        -0.3901    4.8143    1.1353 H         1 <0>         0.0702
     46 H19        -0.3109    3.8725    4.9778 H         1 <0>         0.4039
     47 H20        -1.0384    5.3796    5.1259 H         1 <0>         0.4023
@<TRIPOS>BOND
     1    1    6 ar
     2    1    2 ar
     3    1   28 1
     4    2    3 ar
     5    2   29 1
     6    3    4 ar
     7    3   30 1
     8    4    5 ar
     9    4   27 1
    10    5    6 ar
    11    5    7 1
    12    6   31 1
    13    7    8 2
    14    7    9 am
    15    9   10 1
    16    9   32 1
    17   10   11 2
    18   10   12 1
    19   12   13 1
    20   12   33 1
    21   13   17 1
    22   13   14 2
    23   14   15 1
    24   14   24 1
    25   15   23 1
    26   15   16 2
    27   16   17 1
    28   16   18 1
    29   18   19 1
    30   18   34 1
    31   18   35 1
    32   19   20 1
    33   19   36 1
    34   19   37 1
    35   20   21 1
    36   20   38 1
    37   20   39 1
    38   21   22 1
    39   21   40 1
    40   21   41 1
    41   22   23 1
    42   22   42 1
    43   22   43 1
    44   23   44 1
    45   23   45 1
    46   24   25 2
    47   24   26 am
    48   26   46 1
    49   26   47 1
@<TRIPOS>MOLECULE
ZINC23708819
   44    45     0     0     0
SMALL
USER_CHARGES
(3S)-3-(3-bromophenyl)-N-(3,5-dimethylphenyl)-3-ureido-propanamide
@<TRIPOS>ATOM
      1 C1          1.0344   -1.8879    1.2390 C.3       1 <0>        -0.1171
      2 C2          1.1170   -0.5396    0.5710 C.ar      1 <0>        -0.0601
      3 C3          0.0012   -0.0054   -0.0469 C.ar      1 <0>        -0.1433
      4 C4          0.0715    1.2339   -0.6564 C.ar      1 <0>        -0.0621
      5 C5          1.2573    1.9420   -0.6499 C.ar      1 <0>        -0.1380
      6 C6          2.3795    1.4085   -0.0298 C.ar      1 <0>         0.1621
      7 C7          2.3056    0.1638    0.5815 C.ar      1 <0>        -0.1613
      8 N1          3.5822    2.1236   -0.0210 N.am      1 <0>        -0.6859
      9 C8          3.5675    3.4680   -0.1152 C.2       1 <0>         0.5231
     10 O1          2.5121    4.0654   -0.1014 O.2       1 <0>        -0.5217
     11 C9          4.8625    4.2289   -0.2378 C.3       1 <0>        -0.1663
     12 C10         4.5670    5.7274   -0.3280 C.3       1 <0>         0.2340
     13 H1          3.9375    6.0572    0.5116 H         1 <0>         0.1104
     14 C11         5.8633    6.4960   -0.3268 C.ar      1 <0>        -0.0747
     15 C12         5.8987    7.7922   -0.8067 C.ar      1 <0>        -0.0860
     16 C13         7.0871    8.4980   -0.8051 C.ar      1 <0>        -0.1117
     17 C14         8.2410    7.9079   -0.3240 C.ar      1 <0>        -0.0921
     18 C15         8.2061    6.6112    0.1557 C.ar      1 <0>        -0.0858
     19 C16         7.0152    5.9072    0.1592 C.ar      1 <0>        -0.0802
     20 Br1         9.7842    5.8035    0.8139 Br        1 <0>        -0.0515
     21 N2          3.8346    6.0071   -1.5656 N.am      1 <0>        -0.7472
     22 C17         4.4274    5.8071   -2.7593 C.2       1 <0>         0.7064
     23 O2          5.5357    5.3098   -2.8120 O.2       1 <0>        -0.5954
     24 N3          3.7918    6.1585   -3.8947 N.am      1 <0>        -0.8933
     25 C18        -1.1468    1.8121   -1.3290 C.3       1 <0>        -0.1158
     26 H2          0.0169   -2.2907    1.1274 H         1 <0>         0.0668
     27 H3          1.2719   -1.7827    2.3079 H         1 <0>         0.0704
     28 H4          1.7541   -2.5745    0.7693 H         1 <0>         0.0705
     29 H5         -0.9271   -0.5573   -0.0537 H         1 <0>         0.1210
     30 H6          1.3115    2.9098   -1.1261 H         1 <0>         0.1407
     31 H7          3.1766   -0.2538    1.0645 H         1 <0>         0.1232
     32 H8          4.5396    1.5885    0.0628 H         1 <0>         0.4351
     33 H9          5.4889    4.0311    0.6445 H         1 <0>         0.1056
     34 H10         5.3938    3.9047   -1.1448 H         1 <0>         0.1256
     35 H11         4.9974    8.2535   -1.1827 H         1 <0>         0.1240
     36 H12         7.1142    9.5107   -1.1793 H         1 <0>         0.1301
     37 H13         9.1695    8.4596   -0.3224 H         1 <0>         0.1312
     38 H14         6.9864    4.8963    0.5381 H         1 <0>         0.1327
     39 H15         2.8008    6.3803   -1.5205 H         1 <0>         0.4235
     40 H16         4.2757    5.9953   -4.8690 H         1 <0>         0.4349
     41 H17         2.7892    6.6085   -3.8471 H         1 <0>         0.4121
     42 H18        -0.8990    2.7962   -1.7534 H         1 <0>         0.0651
     43 H19        -1.9547    1.9240   -0.5909 H         1 <0>         0.0709
     44 H20        -1.4760    1.1381   -2.1336 H         1 <0>         0.0701
@<TRIPOS>BOND
     1    1    2 1
     2    1   26 1
     3    1   27 1
     4    1   28 1
     5    2    7 ar
     6    2    3 ar
     7    3    4 ar
     8    3   29 1
     9    4    5 ar
    10    4   25 1
    11    5    6 ar
    12    5   30 1
    13    6    7 ar
    14    6    8 1
    15    7   31 1
    16    8    9 am
    17    8   32 1
    18    9   10 2
    19    9   11 1
    20   11   12 1
    21   11   33 1
    22   11   34 1
    23   12   13 1
    24   12   14 1
    25   12   21 1
    26   14   19 ar
    27   14   15 ar
    28   15   16 ar
    29   15   35 1
    30   16   17 ar
    31   16   36 1
    32   17   18 ar
    33   17   37 1
    34   18   19 ar
    35   18   20 1
    36   19   38 1
    37   21   22 am
    38   21   39 1
    39   22   23 2
    40   22   24 am
    41   24   40 1
    42   24   41 1
    43   25   42 1
    44   25   43 1
    45   25   44 1
@<TRIPOS>MOLECULE
ZINC40167309
   46    48     0     0     0
SMALL
USER_CHARGES

@<TRIPOS>ATOM
      1 C1          0.1320    1.2641   -0.0374 C.3       1 <0>        -0.1877
      2 C2         -0.8732    0.9620    1.0758 C.3       1 <0>         0.1896
      3 C3         -0.1381    0.2760    2.2264 C.3       1 <0>        -0.1381
      4 C4          0.3896    1.3337    3.2356 C.3       1 <0>        -0.5660
      5 S1         -1.0432    2.4989    3.2375 S.o2      1 <0>         2.3449
      6 O1         -2.0564    1.9923    4.0954 O.2       1 <0>        -0.9336
      7 O2         -0.5667    3.8252    3.4192 O.2       1 <0>        -0.9312
      8 C5         -1.5657    2.2763    1.4861 C.3       1 <0>        -0.5515
      9 N1         -1.8860    0.0407    0.5545 N.pl3     1 <0>        -0.6775
     10 C6         -2.7375    0.4493   -0.4070 C.2       1 <0>         0.5517
     11 S2         -2.5477    1.9950   -1.1182 S.2       1 <0>        -0.5887
     12 N2         -3.7383   -0.3591   -0.8088 N.pl3     1 <0>        -0.6246
     13 C7         -4.6746    0.0980   -1.7415 C.ar      1 <0>         0.1041
     14 C8         -4.2474    0.7623   -2.8850 C.ar      1 <0>        -0.0587
     15 C9         -5.1687    1.2142   -3.8058 C.ar      1 <0>        -0.1144
     16 C10        -6.5297    1.0039   -3.5892 C.ar      1 <0>        -0.0137
     17 C11        -6.9559    0.3369   -2.4416 C.ar      1 <0>        -0.1175
     18 C12        -6.0305   -0.1178   -1.5262 C.ar      1 <0>        -0.1108
     19 C13        -7.5229    1.4896   -4.5780 C.ar      1 <0>        -0.1125
     20 C14        -7.0964    2.1519   -5.7283 C.ar      1 <0>        -0.0540
     21 C15        -8.0212    2.6021   -6.6463 C.ar      1 <0>        -0.1980
     22 C16        -9.3781    2.3959   -6.4257 C.ar      1 <0>         0.2220
     23 C17        -9.8056    1.7357   -5.2795 C.ar      1 <0>        -0.1987
     24 C18        -8.8840    1.2792   -4.3614 C.ar      1 <0>        -0.0559
     25 N3        -10.3129    2.8530   -7.3564 N.pl3     1 <0>        -0.8764
     26 H1          0.8248    2.0357    0.2983 H         1 <0>         0.0767
     27 H2          0.6871    0.3584   -0.2812 H         1 <0>         0.0607
     28 H3         -0.4000    1.6136   -0.9222 H         1 <0>         0.1163
     29 H4         -0.8218   -0.4013    2.7383 H         1 <0>         0.0943
     30 H5          0.7018   -0.2938    1.8290 H         1 <0>         0.1125
     31 H6          0.5483    0.8975    4.2218 H         1 <0>         0.1449
     32 H7          1.2945    1.8173    2.8675 H         1 <0>         0.1444
     33 H8         -1.2136    3.1048    0.8714 H         1 <0>         0.1676
     34 H9         -2.6491    2.1782    1.4173 H         1 <0>         0.1471
     35 H10        -1.9437   -0.8633    0.9014 H         1 <0>         0.4024
     36 H11        -3.8092   -1.2578   -0.4509 H         1 <0>         0.4073
     37 H12        -3.1929    0.9250   -3.0523 H         1 <0>         0.1467
     38 H13        -4.8363    1.7310   -4.6939 H         1 <0>         0.1295
     39 H14        -8.0097    0.1729   -2.2718 H         1 <0>         0.1290
     40 H15        -6.3599   -0.6382   -0.6390 H         1 <0>         0.1240
     41 H16        -6.0423    2.3126   -5.8998 H         1 <0>         0.1265
     42 H17        -7.6913    3.1155   -7.5373 H         1 <0>         0.1224
     43 H18       -10.8603    1.5766   -5.1101 H         1 <0>         0.1218
     44 H19        -9.2163    0.7624   -3.4733 H         1 <0>         0.1248
     45 H20       -10.0154    3.3141   -8.1563 H         1 <0>         0.3992
     46 H21       -11.2599    2.7095   -7.2032 H         1 <0>         0.3990
@<TRIPOS>BOND
     1    1    2 1
     2    1   26 1
     3    1   27 1
     4    1   28 1
     5    2    8 1
     6    2    3 1
     7    2    9 1
     8    3    4 1
     9    3   29 1
    10    3   30 1
    11    4    5 1
    12    4   31 1
    13    4   32 1
    14    5    6 2
    15    5    7 2
    16    5    8 1
    17    8   33 1
    18    8   34 1
    19    9   10 1
    20    9   35 1
    21   10   11 2
    22   10   12 1
    23   12   13 1
    24   12   36 1
    25   13   18 ar
    26   13   14 ar
    27   14   15 ar
    28   14   37 1
    29   15   16 ar
    30   15   38 1
    31   16   17 ar
    32   16   19 1
    33   17   18 ar
    34   17   39 1
    35   18   40 1
    36   19   24 ar
    37   19   20 ar
    38   20   21 ar
    39   20   41 1
    40   21   22 ar
    41   21   42 1
    42   22   23 ar
    43   22   25 1
    44   23   24 ar
    45   23   43 1
    46   24   44 1
    47   25   45 1
    48   25   46 1
@<TRIPOS>MOLECULE
ZINC46573960
   36    37     0     0     0
SMALL
USER_CHARGES

@<TRIPOS>ATOM
      1 C1          0.4035    1.1698   -0.4942 C.ar      1 <0>        -0.0811
      2 C2          1.6080    1.8250   -0.3234 C.ar      1 <0>        -0.1340
      3 C3          2.5839    1.2831    0.5038 C.ar      1 <0>         0.1621
      4 C4          2.3477    0.0824    1.1588 C.ar      1 <0>        -0.1451
      5 C5          1.1374   -0.5726    0.9851 C.ar      1 <0>         0.1801
      6 C6          0.1656   -0.0254    0.1565 C.ar      1 <0>        -0.1591
      7 N1          0.8956   -1.7836    1.6433 N.am      1 <0>        -0.6845
      8 C7          1.4220   -2.0038    2.8644 C.2       1 <0>         0.7041
      9 O1          2.0254   -1.1159    3.4353 O.2       1 <0>        -0.5734
     10 N2          1.2795   -3.2080    3.4525 N.am      1 <0>        -0.8609
     11 N3          3.8027    1.9463    0.6759 N.am      1 <0>        -0.6656
     12 C8          3.8380    3.2932    0.7099 C.2       1 <0>         0.5511
     13 O2          2.8231    3.9340    0.5072 O.2       1 <0>        -0.5187
     14 C9          5.0953    3.9846    0.9904 C.2       1 <0>        -0.1878
     15 C10         5.1308    5.3338    1.0246 C.2       1 <0>        -0.0209
     16 C11         6.3946    6.0287    1.3065 C.ar      1 <0>        -0.1444
     17 C12         7.1741    5.6547    2.4093 C.ar      1 <0>         0.1439
     18 C13         8.3606    6.3140    2.6662 C.ar      1 <0>        -0.1628
     19 C14         8.7797    7.3408    1.8390 C.ar      1 <0>        -0.0515
     20 C15         8.0170    7.7173    0.7478 C.ar      1 <0>        -0.1629
     21 C16         6.8306    7.0658    0.4710 C.ar      1 <0>         0.1486
     22 F1          6.0902    7.4314   -0.5983 F         1 <0>        -0.1216
     23 F2          6.7664    4.6529    3.2189 F         1 <0>        -0.1220
     24 H1         -0.3553    1.5953   -1.1342 H         1 <0>         0.1318
     25 H2          1.7911    2.7590   -0.8336 H         1 <0>         0.1398
     26 H3          3.1048   -0.3411    1.8021 H         1 <0>         0.1398
     27 H4         -0.7770   -0.5350    0.0209 H         1 <0>         0.1271
     28 H5          0.3491   -2.4646    1.2208 H         1 <0>         0.4090
     29 H6          0.7981   -3.9163    2.9970 H         1 <0>         0.3995
     30 H7          1.6584   -3.3664    4.3313 H         1 <0>         0.4196
     31 H8          4.6228    1.4371    0.7707 H         1 <0>         0.4132
     32 H9          5.9958    3.4160    1.1703 H         1 <0>         0.1335
     33 H10         4.2303    5.9023    0.8447 H         1 <0>         0.1481
     34 H11         8.9628    6.0272    3.5156 H         1 <0>         0.1480
     35 H12         9.7081    7.8520    2.0466 H         1 <0>         0.1483
     36 H13         8.3522    8.5202    0.1080 H         1 <0>         0.1485
@<TRIPOS>BOND
     1    1    6 ar
     2    1    2 ar
     3    1   24 1
     4    2    3 ar
     5    2   25 1
     6    3    4 ar
     7    3   11 1
     8    4    5 ar
     9    4   26 1
    10    5    6 ar
    11    5    7 1
    12    6   27 1
    13    7    8 am
    14    7   28 1
    15    8    9 2
    16    8   10 am
    17   10   29 1
    18   10   30 1
    19   11   12 am
    20   11   31 1
    21   12   13 2
    22   12   14 1
    23   14   15 2
    24   14   32 1
    25   15   16 1
    26   15   33 1
    27   16   21 ar
    28   16   17 ar
    29   17   18 ar
    30   17   23 1
    31   18   19 ar
    32   18   34 1
    33   19   20 ar
    34   19   35 1
    35   20   21 ar
    36   20   36 1
    37   21   22 1
@<TRIPOS>MOLECULE
ZINC45723725
   41    42     0     0     0
SMALL
USER_CHARGES

@<TRIPOS>ATOM
      1 C1         -0.0147    1.3809    0.0415 C.ar      1 <0>        -0.1333
      2 C2          1.1038    1.9454    0.6272 C.ar      1 <0>        -0.0989
      3 C3          2.3105    1.2744    0.6032 C.ar      1 <0>        -0.1184
      4 C4          2.4002    0.0314   -0.0099 C.ar      1 <0>         0.1785
      5 C5          1.2754   -0.5326   -0.5970 C.ar      1 <0>        -0.0996
      6 C6          0.0713    0.1437   -0.5697 C.ar      1 <0>        -0.0894
      7 C7          1.3684   -1.8808   -1.2638 C.3       1 <0>        -0.1031
      8 C8          1.1950   -2.9648   -0.2314 C.2       1 <0>         0.5099
      9 O1          1.0138   -2.6715    0.9313 O.2       1 <0>        -0.5270
     10 N1          1.2413   -4.2603   -0.6002 N.am      1 <0>        -0.8580
     11 N2          3.6217   -0.6510   -0.0363 N.am      1 <0>        -0.6836
     12 C9          4.7756    0.0368   -0.1458 C.2       1 <0>         0.7037
     13 O2          4.7616    1.2526   -0.1394 O.2       1 <0>        -0.5669
     14 N3          5.9450   -0.6231   -0.2625 N.am      1 <0>        -0.7429
     15 C10         7.1992    0.1246   -0.3815 C.3       1 <0>         0.1421
     16 C11         8.3680   -0.8557   -0.4995 C.3       1 <0>        -0.0924
     17 C12         9.6582   -0.0866   -0.6219 C.ar      1 <0>        -0.0552
     18 C13        10.1309    0.2759   -1.8697 C.ar      1 <0>        -0.1237
     19 C14        11.3141    0.9813   -1.9835 C.ar      1 <0>        -0.0870
     20 C15        12.0264    1.3247   -0.8499 C.ar      1 <0>        -0.1541
     21 C16        11.5542    0.9622    0.4000 C.ar      1 <0>         0.1016
     22 C17        10.3655    0.2608    0.5131 C.ar      1 <0>        -0.1483
     23 F1         12.2498    1.2969    1.5087 F         1 <0>        -0.1380
     24 H1         -0.9584    1.9057    0.0655 H         1 <0>         0.1242
     25 H2          1.0335    2.9121    1.1035 H         1 <0>         0.1260
     26 H3          3.1837    1.7158    1.0604 H         1 <0>         0.1415
     27 H4         -0.8040   -0.2944   -1.0263 H         1 <0>         0.1242
     28 H5          0.5857   -1.9682   -2.0174 H         1 <0>         0.1092
     29 H6          2.3437   -1.9846   -1.7393 H         1 <0>         0.0993
     30 H7          1.3862   -4.4950   -1.5302 H         1 <0>         0.4021
     31 H8          1.1296   -4.9581    0.0643 H         1 <0>         0.4032
     32 H9          3.6379   -1.6189    0.0242 H         1 <0>         0.4029
     33 H10         5.9561   -1.5930   -0.2676 H         1 <0>         0.3976
     34 H11         7.1632    0.7556   -1.2696 H         1 <0>         0.0734
     35 H12         7.3357    0.7482    0.5020 H         1 <0>         0.0723
     36 H13         8.4040   -1.4867    0.3886 H         1 <0>         0.0839
     37 H14         8.2315   -1.4793   -1.3830 H         1 <0>         0.0856
     38 H15         9.5753    0.0074   -2.7560 H         1 <0>         0.1309
     39 H16        11.6823    1.2640   -2.9587 H         1 <0>         0.1352
     40 H17        12.9513    1.8752   -0.9391 H         1 <0>         0.1364
     41 H18         9.9938   -0.0186    1.4879 H         1 <0>         0.1361
@<TRIPOS>BOND
     1    1    6 ar
     2    1    2 ar
     3    1   24 1
     4    2    3 ar
     5    2   25 1
     6    3    4 ar
     7    3   26 1
     8    4    5 ar
     9    4   11 1
    10    5    6 ar
    11    5    7 1
    12    6   27 1
    13    7    8 1
    14    7   28 1
    15    7   29 1
    16    8    9 2
    17    8   10 am
    18   10   30 1
    19   10   31 1
    20   11   12 am
    21   11   32 1
    22   12   13 2
    23   12   14 am
    24   14   15 1
    25   14   33 1
    26   15   16 1
    27   15   34 1
    28   15   35 1
    29   16   17 1
    30   16   36 1
    31   16   37 1
    32   17   22 ar
    33   17   18 ar
    34   18   19 ar
    35   18   38 1
    36   19   20 ar
    37   19   39 1
    38   20   21 ar
    39   20   40 1
    40   21   22 ar
    41   21   23 1
    42   22   41 1
@<TRIPOS>MOLECULE
ZINC67473608
   43    43     0     0     0
SMALL
USER_CHARGES

@<TRIPOS>ATOM
      1 C1         -0.1164    1.4841    0.0368 C.3       1 <0>        -0.1636
      2 C2         -0.0507   -0.0438   -0.0107 C.3       1 <0>         0.1622
      3 H1         -1.0443   -0.4558    0.1658 H         1 <0>         0.1121
      4 C3          0.4420   -0.4835   -1.3653 C.ar      1 <0>        -0.0559
      5 C4          1.0752    0.4209   -2.1976 C.ar      1 <0>        -0.1064
      6 C5          1.5272    0.0176   -3.4399 C.ar      1 <0>        -0.0865
      7 C6          1.3465   -1.2902   -3.8502 C.ar      1 <0>        -0.1122
      8 C7          0.7143   -2.1945   -3.0178 C.ar      1 <0>        -0.0730
      9 C8          0.2660   -1.7922   -1.7734 C.ar      1 <0>        -0.1673
     10 C9         -0.4186   -2.7795   -0.8636 C.3       1 <0>         0.5054
     11 F1         -0.5372   -4.0110   -1.5169 F         1 <0>        -0.1768
     12 F2          0.3373   -2.9411    0.3024 F         1 <0>        -0.1716
     13 F3         -1.6915   -2.3031   -0.5320 F         1 <0>        -0.1722
     14 N1          0.8685   -0.5255    1.0233 N.am      1 <0>        -0.7149
     15 C10         0.4248   -0.7225    2.2806 C.2       1 <0>         0.5229
     16 O1         -0.7536   -0.5910    2.5355 O.2       1 <0>        -0.5298
     17 C11         1.3930   -1.1063    3.3698 C.3       1 <0>         0.1545
     18 H2          2.2022   -1.6998    2.9442 H         1 <0>         0.1088
     19 C12         1.9699    0.1588    4.0084 C.3       1 <0>        -0.0991
     20 C13         3.0236   -0.2294    5.0476 C.3       1 <0>        -0.1359
     21 C14         2.6159    1.0270    2.9268 C.3       1 <0>        -0.1548
     22 N2          0.6945   -1.8929    4.3893 N.am      1 <0>        -0.7305
     23 C15         1.3827   -2.7539    5.1649 C.2       1 <0>         0.7095
     24 O2          2.5833   -2.8777    5.0185 O.2       1 <0>        -0.5869
     25 N3          0.7400   -3.4776    6.1028 N.am      1 <0>        -0.8657
     26 H3          0.8916    1.8934   -0.0307 H         1 <0>         0.0660
     27 H4         -0.7132    1.8483   -0.7994 H         1 <0>         0.0732
     28 H5         -0.5744    1.7991    0.9744 H         1 <0>         0.0697
     29 H6          1.2164    1.4425   -1.8771 H         1 <0>         0.1423
     30 H7          2.0212    0.7243   -4.0903 H         1 <0>         0.1364
     31 H8          1.6990   -1.6052   -4.8212 H         1 <0>         0.1377
     32 H9          0.5728   -3.2161   -3.3385 H         1 <0>         0.1407
     33 H10         1.7964   -0.7026    0.8031 H         1 <0>         0.4047
     34 H11         1.1699    0.7181    4.4935 H         1 <0>         0.0778
     35 H12         3.8235   -0.7887    4.5625 H         1 <0>         0.0641
     36 H13         3.4345    0.6719    5.5025 H         1 <0>         0.0508
     37 H14         2.5633   -0.8479    5.8181 H         1 <0>         0.0585
     38 H15         1.8463    1.3937    2.2475 H         1 <0>         0.0592
     39 H16         3.1215    1.8724    3.3935 H         1 <0>         0.0657
     40 H17         3.3401    0.4334    2.3689 H         1 <0>         0.0595
     41 H18        -0.2634   -1.7942    4.5061 H         1 <0>         0.4061
     42 H19        -0.2179   -3.3789    6.2196 H         1 <0>         0.3982
     43 H20         1.2353   -4.0973    6.6610 H         1 <0>         0.4169
@<TRIPOS>BOND
     1    1    2 1
     2    1   26 1
     3    1   27 1
     4    1   28 1
     5    2    3 1
     6    2    4 1
     7    2   14 1
     8    4    9 ar
     9    4    5 ar
    10    5    6 ar
    11    5   29 1
    12    6    7 ar
    13    6   30 1
    14    7    8 ar
    15    7   31 1
    16    8    9 ar
    17    8   32 1
    18    9   10 1
    19   10   11 1
    20   10   12 1
    21   10   13 1
    22   14   15 am
    23   14   33 1
    24   15   16 2
    25   15   17 1
    26   17   18 1
    27   17   19 1
    28   17   22 1
    29   19   20 1
    30   19   21 1
    31   19   34 1
    32   20   35 1
    33   20   36 1
    34   20   37 1
    35   21   38 1
    36   21   39 1
    37   21   40 1
    38   22   23 am
    39   22   41 1
    40   23   24 2
    41   23   25 am
    42   25   42 1
    43   25   43 1
@<TRIPOS>MOLECULE
ZINC17076996
   49    51     0     0     0
SMALL
USER_CHARGES
(1R,2R,3R,4S)-3-[[(4,5-dimethylthiophene-3-carbonyl)amino]carbamoyl]-7-isopropylidene-norbornane-2-carboxylic acid
@<TRIPOS>ATOM
      1 C1          0.8828   -2.0356    4.7887 C.3       1 <0>        -0.1077
      2 C2          1.6097   -2.1219    3.4715 C.2       1 <0>        -0.0747
      3 C3          2.7920   -2.7588    3.3610 C.2       1 <0>        -0.1732
      4 S1          3.1986   -2.5591    1.6385 S.3       1 <0>         0.1251
      5 C4          1.8126   -1.6604    1.1190 C.2       1 <0>        -0.1725
      6 C5          1.0681   -1.5319    2.2732 C.2       1 <0>        -0.1596
      7 C6         -0.2194   -0.8186    2.2819 C.2       1 <0>         0.5726
      8 O1         -0.8536   -0.7209    3.3152 O.2       1 <0>        -0.5339
      9 N1         -0.6955   -0.2736    1.1449 N.am      1 <0>        -0.5154
     10 N2         -1.9182    0.4103    1.1544 N.am      1 <0>        -0.5251
     11 C7         -2.3917    0.9601    0.0186 C.2       1 <0>         0.5400
     12 O2         -1.7593    0.8627   -1.0117 O.2       1 <0>        -0.5360
     13 C8         -3.7069    1.6958    0.0288 C.3       1 <0>        -0.0735
     14 H1         -3.8042    2.2886    0.9383 H         1 <0>         0.1013
     15 C9         -4.8938    0.6931   -0.0983 C.3       1 <0>        -0.0594
     16 H2         -5.1912    0.1912    0.8225 H         1 <0>         0.0983
     17 C10        -4.4982   -0.2406   -1.2822 C.3       1 <0>        -0.1193
     18 C11        -4.6250    0.6588   -2.5342 C.3       1 <0>        -0.1165
     19 C12        -5.0833    2.0379   -1.9700 C.3       1 <0>        -0.0419
     20 H3         -5.5589    2.7086   -2.6857 H         1 <0>         0.1039
     21 C13        -3.8337    2.5952   -1.2231 C.3       1 <0>        -0.1091
     22 H4         -2.9449    2.5067   -1.8479 H         1 <0>         0.0935
     23 C14        -4.0563    4.0304   -0.8210 C.2       1 <0>         0.4685
     24 O3         -5.0703    4.5995   -1.1493 O.co2     1 <0>        -0.6279
     25 C15        -5.9566    1.5870   -0.7770 C.2       1 <0>        -0.1147
     26 C16        -7.1929    1.8695   -0.4488 C.2       1 <0>        -0.1188
     27 C17        -7.7972    1.2729    0.7962 C.3       1 <0>        -0.1067
     28 C18        -8.0110    2.7912   -1.3162 C.3       1 <0>        -0.1009
     29 C19         3.5812   -3.4627    4.4346 C.3       1 <0>        -0.0651
     30 H5          0.2190   -2.8938    4.8943 H         1 <0>         0.0694
     31 H6          1.6066   -2.0337    5.6037 H         1 <0>         0.0602
     32 H7          0.2969   -1.1171    4.8209 H         1 <0>         0.0985
     33 H8          1.5858   -1.2900    0.1302 H         1 <0>         0.1923
     34 H9         -0.1898   -0.3515    0.3209 H         1 <0>         0.4276
     35 H10        -2.4240    0.4882    1.9785 H         1 <0>         0.4317
     36 H11        -3.4723   -0.5901   -1.1660 H         1 <0>         0.0660
     37 H12        -5.1832   -1.0861   -1.3466 H         1 <0>         0.0611
     38 H13        -3.6616    0.7529   -3.0354 H         1 <0>         0.0695
     39 H14        -5.3722    0.2570   -3.2185 H         1 <0>         0.0579
     40 H15        -7.6137    1.9350    1.6424 H         1 <0>         0.0622
     41 H16        -8.8713    1.1511    0.6563 H         1 <0>         0.0563
     42 H17        -7.3436    0.3009    0.9903 H         1 <0>         0.0563
     43 H18        -7.4103    3.1204   -2.1641 H         1 <0>         0.0682
     44 H19        -8.8922    2.2620   -1.6788 H         1 <0>         0.0500
     45 H20        -8.3221    3.6580   -0.7330 H         1 <0>         0.0615
     46 H21         4.4982   -3.8668    4.0056 H         1 <0>         0.0720
     47 H22         3.8310   -2.7549    5.2250 H         1 <0>         0.0803
     48 H23         2.9854   -4.2755    4.8497 H         1 <0>         0.0798
     49 O4         -3.1281    4.6765   -0.0980 O.co2     1 <0>        -0.7721
@<TRIPOS>BOND
     1    1    2 1
     2    1   30 1
     3    1   31 1
     4    1   32 1
     5    2    6 1
     6    2    3 2
     7    3    4 1
     8    3   29 1
     9    4    5 1
    10    5    6 2
    11    5   33 1
    12    6    7 1
    13    7    8 2
    14    7    9 am
    15    9   10 1
    16    9   34 1
    17   10   11 am
    18   10   35 1
    19   11   12 2
    20   11   13 1
    21   13   14 1
    22   13   21 1
    23   13   15 1
    24   15   16 1
    25   15   25 1
    26   15   17 1
    27   17   18 1
    28   17   36 1
    29   17   37 1
    30   18   19 1
    31   18   38 1
    32   18   39 1
    33   19   20 1
    34   19   21 1
    35   19   25 1
    36   21   22 1
    37   21   23 1
    38   23   24 2
    39   23   49 1
    40   25   26 2
    41   26   27 1
    42   26   28 1
    43   27   40 1
    44   27   41 1
    45   27   42 1
    46   28   43 1
    47   28   44 1
    48   28   45 1
    49   29   46 1
    50   29   47 1
    51   29   48 1
@<TRIPOS>MOLECULE
ZINC13361345
   51    55     0     0     0
SMALL
USER_CHARGES

@<TRIPOS>ATOM
      1 C1         -0.0167    1.3781    0.0096 C.ar      1 <0>        -0.1256
      2 C2          1.1709    2.0855    0.0021 C.ar      1 <0>        -0.1196
      3 C3          2.3773    1.4107   -0.0130 C.ar      1 <0>        -0.1183
      4 C4          2.3960    0.0285   -0.0201 C.ar      1 <0>        -0.0589
      5 C5          1.2084   -0.6789   -0.0117 C.ar      1 <0>        -0.1024
      6 C6          0.0021   -0.0041    0.0020 C.ar      1 <0>        -0.1183
      7 C7          3.7112   -0.7071   -0.0376 C.3       1 <0>        -0.0087
      8 H1          4.5335    0.0084   -0.0426 H         1 <0>         0.0841
      9 C8          3.8169   -1.6104    1.1989 C.3       1 <0>         0.0636
     10 N1          4.9608   -2.5200    1.0434 N.3       1 <0>        -0.6632
     11 C9          4.6958   -3.5478    0.0239 C.3       1 <0>         0.2032
     12 H2          3.9197   -4.2254    0.3800 H         1 <0>         0.1030
     13 C10         4.2302   -2.8617   -1.2385 C.2       1 <0>         0.0582
     14 H3          4.4460   -4.2942   -2.7357 H         1 <0>         0.4173
     15 C11         3.7895   -1.5824   -1.2631 C.2       1 <0>        -0.1708
     16 C12         3.4366   -1.2766   -2.6314 C.ar      1 <0>        -0.0858
     17 C13         2.9324   -0.1282   -3.2491 C.ar      1 <0>        -0.0648
     18 C14         2.7092   -0.1977   -4.6023 C.ar      1 <0>        -0.1518
     19 C15         2.9671   -1.3458   -5.3326 C.ar      1 <0>        -0.1036
     20 C16         3.4666   -2.4968   -4.7474 C.ar      1 <0>        -0.1295
     21 C17         3.7035   -2.4558   -3.3755 C.ar      1 <0>         0.0962
     22 N2          4.1810   -3.3916   -2.4991 N.pl3     1 <0>        -0.5710
     23 C18         5.9576   -4.3240   -0.2526 C.ar      1 <0>        -0.1458
     24 C19         7.1728   -3.6670   -0.3126 C.ar      1 <0>        -0.0607
     25 C20         8.3308   -4.3762   -0.5664 C.ar      1 <0>        -0.1567
     26 C21         8.2739   -5.7486   -0.7606 C.ar      1 <0>         0.1477
     27 C22         7.0535   -6.4055   -0.6994 C.ar      1 <0>        -0.2148
     28 C23         5.8989   -5.6926   -0.4402 C.ar      1 <0>        -0.0699
     29 O1          9.4117   -6.4484   -1.0108 O.3       1 <0>        -0.2796
     30 C24         9.2777   -7.8584   -1.2006 C.3       1 <0>        -0.0073
     31 C25        10.6335   -8.4608   -1.4648 C.2       1 <0>         0.5007
     32 O2         11.6229   -7.7487   -1.4884 O.co2     1 <0>        -0.6702
     33 O3         10.7411   -9.6603   -1.6549 O.co2     1 <0>        -0.6867
     34 H4         -0.9591    1.9053    0.0259 H         1 <0>         0.1178
     35 H5          1.1563    3.1654    0.0076 H         1 <0>         0.1192
     36 H6          3.3051    1.9634   -0.0196 H         1 <0>         0.1199
     37 H7          1.2231   -1.7588   -0.0176 H         1 <0>         0.1170
     38 H8         -0.9258   -0.5567    0.0082 H         1 <0>         0.1182
     39 H9          3.9598   -0.9952    2.0872 H         1 <0>         0.0870
     40 H10         2.9012   -2.1925    1.3031 H         1 <0>         0.0793
     41 H11         5.8036   -2.0079    0.8301 H         1 <0>         0.3479
     42 H12         2.7276    0.7716   -2.6881 H         1 <0>         0.1244
     43 H13         2.3199    0.6705   -5.1132 H         1 <0>         0.1140
     44 H14         2.7715   -1.3433   -6.3948 H         1 <0>         0.1181
     45 H15         3.6634   -3.3858   -5.3282 H         1 <0>         0.1260
     46 H16         7.2165   -2.5986   -0.1613 H         1 <0>         0.1203
     47 H17         9.2797   -3.8625   -0.6139 H         1 <0>         0.1314
     48 H18         7.0066   -7.4739   -0.8503 H         1 <0>         0.1299
     49 H19         4.9492   -6.2041   -0.3881 H         1 <0>         0.1198
     50 H20         8.8494   -8.3066   -0.3040 H         1 <0>         0.0606
     51 H21         8.6231   -8.0500   -2.0508 H         1 <0>         0.0593
@<TRIPOS>BOND
     1    1    6 ar
     2    1    2 ar
     3    1   34 1
     4    2    3 ar
     5    2   35 1
     6    3    4 ar
     7    3   36 1
     8    4    5 ar
     9    4    7 1
    10    5    6 ar
    11    5   37 1
    12    6   38 1
    13    7    8 1
    14    7    9 1
    15    7   15 1
    16    9   10 1
    17    9   39 1
    18    9   40 1
    19   10   11 1
    20   10   41 1
    21   11   12 1
    22   11   23 1
    23   11   13 1
    24   13   15 2
    25   13   22 1
    26   14   22 1
    27   15   16 1
    28   16   17 ar
    29   16   21 ar
    30   17   18 ar
    31   17   42 1
    32   18   19 ar
    33   18   43 1
    34   19   20 ar
    35   19   44 1
    36   20   21 ar
    37   20   45 1
    38   21   22 1
    39   23   28 ar
    40   23   24 ar
    41   24   25 ar
    42   24   46 1
    43   25   26 ar
    44   25   47 1
    45   26   27 ar
    46   26   29 1
    47   27   28 ar
    48   27   48 1
    49   28   49 1
    50   29   30 1
    51   30   31 1
    52   30   50 1
    53   30   51 1
    54   31   32 2
    55   31   33 1
@<TRIPOS>MOLECULE
ZINC53117587
   36    37     0     0     0
SMALL
USER_CHARGES

@<TRIPOS>ATOM
      1 C1          2.2978    5.6592   -2.0184 C.2       1 <0>        -0.0550
      2 C2          1.7434    5.7226   -0.7655 C.2       1 <0>        -0.6557
      3 C3          1.5194    6.9393   -0.2029 C.2       1 <0>        -0.2058
      4 S1          2.0554    8.0333   -1.3597 S.3       1 <0>         0.2920
      5 C4          2.5870    6.8821   -2.6128 C.2       1 <0>        -0.1827
      6 C5          3.1563    7.1450   -3.8829 C.2       1 <0>         0.5484
      7 O1          3.4643    6.2163   -4.6203 O.co2     1 <0>        -0.6613
      8 O2          3.3406    8.3011   -4.2442 O.co2     1 <0>        -0.6780
      9 Br1         0.7741    7.3149    1.4939 Br        1 <0>         0.0294
     10 S2          1.3269    4.2469    0.1026 S.o2      1 <0>         2.7080
     11 O3         -0.0422    4.3617    0.4651 O.2       1 <0>        -0.9680
     12 O4          1.8209    3.1650   -0.6752 O.2       1 <0>        -0.9272
     13 N1          2.1922    4.2486    1.5145 N.pl3     1 <0>        -1.1035
     14 C6          3.5672    3.7432    1.5317 C.3       1 <0>         0.1973
     15 C7          3.5672    2.2532    1.1840 C.3       1 <0>        -0.1523
     16 C8          2.7303    1.4896    2.2123 C.3       1 <0>        -0.1181
     17 C9          3.3293    1.6881    3.6061 C.3       1 <0>        -0.1199
     18 C10         3.3293    3.1780    3.9537 C.3       1 <0>        -0.1179
     19 C11         4.1661    3.9417    2.9255 C.3       1 <0>        -0.1146
     20 C12         4.4040    4.5069    0.5034 C.3       1 <0>         0.0454
     21 O5          3.9492    4.1871   -0.8130 O.3       1 <0>        -0.5497
     22 H1          2.5009    4.7192   -2.5099 H         1 <0>         0.1687
     23 H2          1.7886    4.5842    2.3303 H         1 <0>         0.4110
     24 H3          3.1405    2.1118    0.1910 H         1 <0>         0.1252
     25 H4          4.5902    1.8772    1.1967 H         1 <0>         0.0680
     26 H5          1.7073    1.8656    2.1995 H         1 <0>         0.0578
     27 H6          2.7304    0.4281    1.9646 H         1 <0>         0.0625
     28 H7          2.7331    1.1440    4.3386 H         1 <0>         0.0588
     29 H8          4.3523    1.3120    3.6188 H         1 <0>         0.0614
     30 H9          2.3062    3.5540    3.9410 H         1 <0>         0.0635
     31 H10         3.7560    3.3195    4.9467 H         1 <0>         0.0640
     32 H11         5.1892    3.5657    2.9382 H         1 <0>         0.0784
     33 H12         4.1661    5.0032    3.1732 H         1 <0>         0.0709
     34 H13         4.2996    5.5784    0.6736 H         1 <0>         0.0510
     35 H14         5.4516    4.2233    0.6048 H         1 <0>         0.0607
     36 H15         4.4360    4.6367   -1.5173 H         1 <0>         0.3872
@<TRIPOS>BOND
     1    1    5 2
     2    1    2 1
     3    1   22 1
     4    2    3 2
     5    2   10 1
     6    3    4 1
     7    3    9 1
     8    4    5 1
     9    5    6 1
    10    6    7 2
    11    6    8 1
    12   10   11 2
    13   10   12 2
    14   10   13 1
    15   13   14 1
    16   13   23 1
    17   14   19 1
    18   14   15 1
    19   14   20 1
    20   15   16 1
    21   15   24 1
    22   15   25 1
    23   16   17 1
    24   16   26 1
    25   16   27 1
    26   17   18 1
    27   17   28 1
    28   17   29 1
    29   18   19 1
    30   18   30 1
    31   18   31 1
    32   19   32 1
    33   19   33 1
    34   20   21 1
    35   20   34 1
    36   20   35 1
    37   21   36 1
@<TRIPOS>MOLECULE
ZINC61718848
   37    39     0     0     0
SMALL
USER_CHARGES

@<TRIPOS>ATOM
      1 C1         -0.0094    1.4311    0.0252 C.ar      1 <0>        -0.0484
      2 C2          1.1739    2.1325    0.0147 C.ar      1 <0>        -0.1536
      3 C3          2.3959    1.4620    0.0019 C.ar      1 <0>         0.1368
      4 C4          2.4043    0.0630   -0.0200 C.ar      1 <0>        -0.1548
      5 C5          1.2223   -0.6490   -0.0075 C.ar      1 <0>        -0.0224
      6 C6         -0.0001    0.0325    0.0169 C.ar      1 <0>        -0.1328
      7 C7         -1.2671   -0.7176    0.0341 C.2       1 <0>         0.5213
      8 O1         -2.3329   -0.1175    0.0557 O.co2     1 <0>        -0.6831
      9 O2         -1.2539   -1.9409    0.0267 O.co2     1 <0>        -0.6810
     10 S1          3.9495   -0.7904   -0.0762 S.3       1 <0>        -0.0563
     11 C8          5.0658    0.3619    0.7814 C.3       1 <0>        -0.0845
     12 H1          6.1014    0.0936    0.5728 H         1 <0>         0.1548
     13 C9          4.7905    1.7545    0.2759 C.2       1 <0>         0.5289
     14 O3          5.7284    2.5074    0.1193 O.2       1 <0>        -0.5238
     15 N1          3.5704    2.1973   -0.0071 N.am      1 <0>        -0.6436
     16 C10         4.8111    0.3003    2.2888 C.3       1 <0>        -0.1303
     17 C11         5.1799   -1.0666    2.8051 C.2       1 <0>         0.5239
     18 O4          5.6046   -1.9087    2.0425 O.2       1 <0>        -0.4922
     19 N2          5.0377   -1.3534    4.1144 N.am      1 <0>        -0.6722
     20 C12         5.2878   -2.6507    4.5781 C.ar      1 <0>         0.1711
     21 C13         4.5250   -3.1786    5.6115 C.ar      1 <0>        -0.1240
     22 C14         4.7724   -4.4584    6.0684 C.ar      1 <0>        -0.1039
     23 C15         5.7803   -5.2161    5.4972 C.ar      1 <0>         0.0494
     24 C16         6.5438   -4.6918    4.4651 C.ar      1 <0>         0.0886
     25 C17         6.2948   -3.4126    4.0015 C.ar      1 <0>        -0.1313
     26 F1          7.5271   -5.4325    3.9087 F         1 <0>        -0.1252
     27 F2          6.0207   -6.4675    5.9460 F         1 <0>        -0.1298
     28 H2         -0.9494    1.9625    0.0444 H         1 <0>         0.1389
     29 H3          1.1559    3.2123    0.0160 H         1 <0>         0.1265
     30 H4          1.2403   -1.7289   -0.0168 H         1 <0>         0.1414
     31 H5          3.4936    3.1344   -0.2456 H         1 <0>         0.4108
     32 H6          5.4176    1.0542    2.7909 H         1 <0>         0.1145
     33 H7          3.7565    0.4913    2.4873 H         1 <0>         0.1101
     34 H8          4.7622   -0.6610    4.7354 H         1 <0>         0.4168
     35 H9          3.7386   -2.5883    6.0582 H         1 <0>         0.1458
     36 H10         4.1791   -4.8683    6.8724 H         1 <0>         0.1513
     37 H11         6.8861   -3.0054    3.1947 H         1 <0>         0.1623
@<TRIPOS>BOND
     1    1    6 ar
     2    1    2 ar
     3    1   28 1
     4    2    3 ar
     5    2   29 1
     6    3   15 1
     7    3    4 ar
     8    4    5 ar
     9    4   10 1
    10    5    6 ar
    11    5   30 1
    12    6    7 1
    13    7    8 2
    14    7    9 1
    15   10   11 1
    16   11   12 1
    17   11   13 1
    18   11   16 1
    19   13   14 2
    20   13   15 am
    21   15   31 1
    22   16   17 1
    23   16   32 1
    24   16   33 1
    25   17   18 2
    26   17   19 am
    27   19   20 1
    28   19   34 1
    29   20   25 ar
    30   20   21 ar
    31   21   22 ar
    32   21   35 1
    33   22   23 ar
    34   22   36 1
    35   23   24 ar
    36   23   27 1
    37   24   25 ar
    38   24   26 1
    39   25   37 1
@<TRIPOS>MOLECULE
ZINC66004760
   46    49     0     0     0
SMALL
USER_CHARGES

@<TRIPOS>ATOM
      1 C1          2.7553   -1.4543    2.0899 C.3       1 <0>        -0.0807
      2 C2          1.4188   -1.2437    1.4263 C.2       1 <0>        -0.0535
      3 C3          1.0390   -1.6778    0.1518 C.2       1 <0>        -0.2626
      4 C4         -0.2780   -1.2680   -0.0636 C.2       1 <0>         0.0680
      5 N1         -0.6935   -0.6165    1.0236 N.pl3     1 <0>        -0.5015
      6 H1         -1.5738   -0.2266    1.1414 H         1 <0>         0.4135
      7 C5          0.3249   -0.5890    1.9590 C.2       1 <0>         0.0084
      8 C6          0.2590    0.0111    3.2422 C.2       1 <0>         0.3928
      9 O1          0.4942   -0.7294    4.3468 O.3       1 <0>        -0.6373
     10 C7         -0.0490    1.3669    3.3635 C.2       1 <0>        -0.4435
     11 C8         -0.0368    1.9914    4.6521 C.1       1 <0>         0.3320
     12 N2         -0.0272    2.4868    5.6744 N.1       1 <0>        -0.5422
     13 C9         -0.3848    2.1513    2.1725 C.2       1 <0>         0.5070
     14 O2          0.4720    2.3919    1.3398 O.2       1 <0>        -0.4765
     15 C10        -1.7559    2.6483    1.9817 C.2       1 <0>        -0.2463
     16 C11        -2.8446    2.3545    2.7485 C.2       1 <0>         0.1567
     17 N3         -3.9343    2.9993    2.2637 N.pl3     1 <0>        -0.5847
     18 H2         -4.8249    2.9441    2.6441 H         1 <0>         0.4138
     19 C12        -3.5973    3.7451    1.1530 C.ar      1 <0>         0.0821
     20 C13        -2.2225    3.5673    0.9277 C.ar      1 <0>        -0.0654
     21 C14        -1.6000    4.2141   -0.1367 C.ar      1 <0>        -0.0651
     22 C15        -2.3387    5.0314   -0.9645 C.ar      1 <0>        -0.1467
     23 C16        -3.6958    5.2113   -0.7409 C.ar      1 <0>        -0.1076
     24 C17        -4.3266    4.5699    0.3033 C.ar      1 <0>        -0.1302
     25 C18        -2.8377    1.4488    3.9529 C.3       1 <0>        -0.1077
     26 C19        -1.0246   -1.5553   -1.3420 C.3       1 <0>        -0.0518
     27 C20        -0.0193   -1.8575   -2.4569 C.3       1 <0>        -0.1044
     28 C21         0.9545   -2.9580   -2.0240 C.3       1 <0>        -0.1619
     29 C22         1.7884   -2.4327   -0.8649 C.2       1 <0>         0.4285
     30 O3          2.9839   -2.6228   -0.7846 O.2       1 <0>        -0.4717
     31 H3          2.7145   -2.3472    2.7138 H         1 <0>         0.0639
     32 H4          3.5241   -1.5788    1.3273 H         1 <0>         0.0678
     33 H5          2.9941   -0.5894    2.7087 H         1 <0>         0.0644
     34 H6         -0.5434    4.0762   -0.3125 H         1 <0>         0.1309
     35 H7         -1.8588    5.5345   -1.7909 H         1 <0>         0.1209
     36 H8         -4.2651    5.8544   -1.3956 H         1 <0>         0.1216
     37 H9         -5.3835    4.7179    0.4692 H         1 <0>         0.1163
     38 H10        -2.5208    2.0130    4.8301 H         1 <0>         0.0873
     39 H11        -3.8407    1.0549    4.1171 H         1 <0>         0.0617
     40 H12        -2.1465    0.6233    3.7828 H         1 <0>         0.1093
     41 H13        -1.6770   -2.4163   -1.1969 H         1 <0>         0.0831
     42 H14        -1.6229   -0.6867   -1.6171 H         1 <0>         0.0789
     43 H15        -0.5574   -2.1839   -3.3468 H         1 <0>         0.0780
     44 H16         0.5420   -0.9525   -2.6893 H         1 <0>         0.0717
     45 H17         0.3958   -3.8379   -1.7052 H         1 <0>         0.0959
     46 H18         1.6072   -3.2190   -2.8570 H         1 <0>         0.0869
@<TRIPOS>BOND
     1    1    2 1
     2    1   31 1
     3    1   32 1
     4    1   33 1
     5    2    7 2
     6    2    3 1
     7    3   29 1
     8    3    4 2
     9    4    5 1
    10    4   26 1
    11    5    6 1
    12    5    7 1
    13    7    8 1
    14    8    9 1
    15    8   10 2
    16   10   11 1
    17   10   13 1
    18   11   12 3
    19   13   14 2
    20   13   15 1
    21   15   20 1
    22   15   16 2
    23   16   17 1
    24   16   25 1
    25   17   18 1
    26   17   19 1
    27   19   24 ar
    28   19   20 ar
    29   20   21 ar
    30   21   22 ar
    31   21   34 1
    32   22   23 ar
    33   22   35 1
    34   23   24 ar
    35   23   36 1
    36   24   37 1
    37   25   38 1
    38   25   39 1
    39   25   40 1
    40   26   27 1
    41   26   41 1
    42   26   42 1
    43   27   28 1
    44   27   43 1
    45   27   44 1
    46   28   29 1
    47   28   45 1
    48   28   46 1
    49   29   30 2
@<TRIPOS>MOLECULE
ZINC09653640
   42    43     0     0     0
SMALL
USER_CHARGES
6-amino-5-[2-(2,4-dibromophenoxy)acetyl]-1-isobutyl-pyrimidine-2,4-dione
@<TRIPOS>ATOM
      1 C1          5.2355    3.4790   -1.3562 C.3       1 <0>        -0.1471
      2 C2          3.9597    2.6352   -1.3919 C.3       1 <0>        -0.1163
      3 C3          4.1619    1.4444   -2.3310 C.3       1 <0>        -0.1449
      4 C4          3.6450    2.1265    0.0163 C.3       1 <0>         0.0950
      5 N1          2.3619    1.4197    0.0048 N.am      1 <0>        -0.5369
      6 C5          1.2116    2.1170    0.2412 C.2       1 <0>         0.5626
      7 C6         -0.0147    1.4301    0.2276 C.2       1 <0>        -0.4463
      8 C7          0.0099   -0.0132   -0.0426 C.2       1 <0>         0.5824
      9 O1         -1.0218   -0.6585   -0.0662 O.2       1 <0>        -0.5111
     10 N2          1.1999   -0.6088   -0.2638 N.am      1 <0>        -0.6622
     11 H1          1.2333   -1.5909   -0.4490 H         1 <0>         0.4434
     12 C8          2.3402    0.1000   -0.2386 C.2       1 <0>         0.7145
     13 O2          3.3914   -0.4749   -0.4434 O.2       1 <0>        -0.5171
     14 C9         -1.2311    2.1068    0.4604 C.2       1 <0>         0.4403
     15 O3         -1.2418    3.3165    0.5696 O.2       1 <0>        -0.4751
     16 C10        -2.5166    1.3286    0.5735 C.3       1 <0>         0.0388
     17 O4         -3.6003    2.2303    0.8075 O.3       1 <0>        -0.2836
     18 C11        -4.8394    1.6861    0.9348 C.ar      1 <0>         0.1748
     19 C12        -5.0083    0.3128    0.8366 C.ar      1 <0>        -0.1984
     20 C13        -6.2684   -0.2383    0.9662 C.ar      1 <0>        -0.0326
     21 C14        -7.3619    0.5781    1.1944 C.ar      1 <0>        -0.1287
     22 C15        -7.1964    1.9479    1.2924 C.ar      1 <0>        -0.0237
     23 C16        -5.9365    2.5032    1.1690 C.ar      1 <0>        -0.1241
     24 Br1        -5.7091    4.3750    1.3119 Br        1 <0>        -0.0206
     25 Br2        -9.0852   -0.1798    1.3720 Br        1 <0>        -0.0380
     26 N3          1.2520    3.4549    0.4854 N.pl3     1 <0>        -0.7978
     27 H2          6.0644    2.8693   -0.9965 H         1 <0>         0.0644
     28 H3          5.4597    3.8414   -2.3594 H         1 <0>         0.0676
     29 H4          5.0914    4.3274   -0.6871 H         1 <0>         0.0600
     30 H5          3.1308    3.2449   -1.7516 H         1 <0>         0.0740
     31 H6          4.9908    0.8347   -1.9713 H         1 <0>         0.0690
     32 H7          3.2530    0.8433   -2.3565 H         1 <0>         0.0485
     33 H8          4.3861    1.8068   -3.3343 H         1 <0>         0.0594
     34 H9          3.5887    2.9708    0.7035 H         1 <0>         0.0993
     35 H10         4.4320    1.4457    0.3409 H         1 <0>         0.1191
     36 H11        -2.6782    0.8266   -0.2761 H         1 <0>         0.0950
     37 H12        -2.4437    0.6252    1.4029 H         1 <0>         0.1011
     38 H13        -4.1552   -0.3252    0.6591 H         1 <0>         0.1512
     39 H14        -6.4000   -1.3076    0.8897 H         1 <0>         0.1434
     40 H15        -8.0512    2.5834    1.4706 H         1 <0>         0.1488
     41 H16         0.5383    3.8780    0.9879 H         1 <0>         0.4400
     42 H17         1.9946    3.9857    0.1570 H         1 <0>         0.4118
@<TRIPOS>BOND
     1    1    2 1
     2    1   27 1
     3    1   28 1
     4    1   29 1
     5    2    3 1
     6    2    4 1
     7    2   30 1
     8    3   31 1
     9    3   32 1
    10    3   33 1
    11    4    5 1
    12    4   34 1
    13    4   35 1
    14    5   12 am
    15    5    6 1
    16    6    7 2
    17    6   26 1
    18    7    8 1
    19    7   14 1
    20    8    9 2
    21    8   10 am
    22   10   11 1
    23   10   12 am
    24   12   13 2
    25   14   15 2
    26   14   16 1
    27   16   17 1
    28   16   36 1
    29   16   37 1
    30   17   18 1
    31   18   23 ar
    32   18   19 ar
    33   19   20 ar
    34   19   38 1
    35   20   21 ar
    36   20   39 1
    37   21   22 ar
    38   21   25 1
    39   22   23 ar
    40   22   40 1
    41   23   24 1
    42   26   41 1
    43   26   42 1
@<TRIPOS>MOLECULE
ZINC20892952
   56    59     0     0     0
SMALL
USER_CHARGES
2-[4-[(4S)-1-(4-chlorophenyl)-3-methyl-7-oxo-4,8-dihydropyrazolo[5,4-e][1,4]thiazepin-4-yl]-2-ethoxy-phenoxy]acetamide
@<TRIPOS>ATOM
      1 C1         -6.9435    0.2959    2.4613 C.3       1 <0>        -0.1553
      2 C2         -5.6484    0.6532    1.7292 C.3       1 <0>         0.0507
      3 O1         -5.5937   -0.0509    0.4868 O.3       1 <0>        -0.2977
      4 C3         -4.4985    0.1562   -0.2924 C.ar      1 <0>         0.1129
      5 C4         -3.4989    1.0179    0.1296 C.ar      1 <0>        -0.1544
      6 C5         -2.3861    1.2269   -0.6636 C.ar      1 <0>        -0.0584
      7 C6         -2.2702    0.5820   -1.8810 C.ar      1 <0>        -0.0882
      8 C7         -3.2612   -0.2834   -2.3054 C.ar      1 <0>        -0.1772
      9 C8         -4.3792   -0.4973   -1.5152 C.ar      1 <0>         0.1096
     10 O2         -5.3578   -1.3437   -1.9339 O.3       1 <0>        -0.2752
     11 C9         -5.1679   -1.9795   -3.1995 C.3       1 <0>         0.0343
     12 C10        -6.3449   -2.8733   -3.4943 C.2       1 <0>         0.5197
     13 O3         -7.2566   -2.9575   -2.6989 O.2       1 <0>        -0.5229
     14 N1         -6.3844   -3.5790   -4.6418 N.am      1 <0>        -0.8751
     15 C11        -1.2999    2.1644   -0.2030 C.3       1 <0>         0.0489
     16 H1         -1.5017    2.3924    0.8540 H         1 <0>         0.1065
     17 C12        -0.0184    1.3988   -0.0951 C.2       1 <0>        -0.2491
     18 C13         0.0036    0.0037    0.1155 C.2       1 <0>         0.1292
     19 N2          1.2425   -0.3955    0.1610 N.2       1 <0>        -0.2627
     20 N3          2.0648    0.7169   -0.0173 N.pl3     1 <0>        -0.3539
     21 C14         1.2614    1.8249   -0.1728 C.2       1 <0>         0.3568
     22 N4          1.8025    3.0739   -0.3607 N.am      1 <0>        -0.6492
     23 C15         1.3193    4.2600   -0.5791 C.2       1 <0>         0.5371
     24 O4          2.1495    5.1161   -0.8006 O.2       1 <0>        -0.5281
     25 C16        -0.0813    4.7320   -0.6009 C.3       1 <0>        -0.1346
     26 S1         -1.2102    3.5455   -1.3430 S.3       1 <0>        -0.1530
     27 C17         3.4665    0.7087   -0.0352 C.ar      1 <0>         0.1578
     28 C18         4.1472   -0.2788   -0.7346 C.ar      1 <0>        -0.0909
     29 C19         5.5282   -0.2814   -0.7554 C.ar      1 <0>        -0.0845
     30 C20         6.2335    0.6928   -0.0708 C.ar      1 <0>        -0.0353
     31 C21         5.5573    1.6745    0.6322 C.ar      1 <0>        -0.0803
     32 C22         4.1764    1.6847    0.6513 C.ar      1 <0>        -0.1347
     33 Cl1         7.9693    0.6830   -0.0934 Cl        1 <0>        -0.0529
     34 C23        -1.2082   -0.8799    0.2635 C.3       1 <0>        -0.1044
     35 H2         -6.9856    0.8379    3.4176 H         1 <0>         0.0792
     36 H3         -6.9700   -0.7871    2.6521 H         1 <0>         0.0684
     37 H4         -7.8060    0.5801    1.8405 H         1 <0>         0.0685
     38 H5         -5.6219    1.7362    1.5384 H         1 <0>         0.0635
     39 H6         -4.7859    0.3691    2.3500 H         1 <0>         0.0625
     40 H7         -3.5889    1.5260    1.0783 H         1 <0>         0.1398
     41 H8         -1.4015    0.7515   -2.4999 H         1 <0>         0.1324
     42 H9         -3.1663   -0.7890   -3.2550 H         1 <0>         0.1393
     43 H10        -5.0827   -1.2143   -3.9851 H         1 <0>         0.0943
     44 H11        -4.2478   -2.5817   -3.1729 H         1 <0>         0.0942
     45 H12        -7.2435   -4.2314   -4.8570 H         1 <0>         0.4314
     46 H13        -5.5575   -3.5026   -5.3632 H         1 <0>         0.4215
     47 H14         2.8939    3.2093   -0.3397 H         1 <0>         0.4319
     48 H15        -0.4214    4.9185    0.4284 H         1 <0>         0.1271
     49 H16        -0.1454    5.6634   -1.1826 H         1 <0>         0.1579
     50 H17         3.5973   -1.0419   -1.2654 H         1 <0>         0.1457
     51 H18         6.0581   -1.0467   -1.3031 H         1 <0>         0.1477
     52 H19         6.1099    2.4335    1.1660 H         1 <0>         0.1485
     53 H20         3.6491    2.4510    1.2001 H         1 <0>         0.1378
     54 H21        -0.8866   -1.9206    0.4170 H         1 <0>         0.0738
     55 H22        -1.8218   -0.8162   -0.6472 H         1 <0>         0.1055
     56 H23        -1.8006   -0.5478    1.1288 H         1 <0>         0.0832
@<TRIPOS>BOND
     1    1    2 1
     2    1   35 1
     3    1   36 1
     4    1   37 1
     5    2    3 1
     6    2   38 1
     7    2   39 1
     8    3    4 1
     9    4    9 ar
    10    4    5 ar
    11    5    6 ar
    12    5   40 1
    13    6    7 ar
    14    6   15 1
    15    7    8 ar
    16    7   41 1
    17    8    9 ar
    18    8   42 1
    19    9   10 1
    20   10   11 1
    21   11   12 1
    22   11   43 1
    23   11   44 1
    24   12   13 2
    25   12   14 am
    26   14   45 1
    27   14   46 1
    28   15   16 1
    29   15   26 1
    30   15   17 1
    31   17   21 2
    32   17   18 1
    33   18   19 2
    34   18   34 1
    35   19   20 1
    36   20   21 1
    37   20   27 1
    38   21   22 1
    39   22   23 am
    40   22   47 1
    41   23   24 2
    42   23   25 1
    43   25   26 1
    44   25   48 1
    45   25   49 1
    46   27   32 ar
    47   27   28 ar
    48   28   29 ar
    49   28   50 1
    50   29   30 ar
    51   29   51 1
    52   30   31 ar
    53   30   33 1
    54   31   32 ar
    55   31   52 1
    56   32   53 1
    57   34   54 1
    58   34   55 1
    59   34   56 1
@<TRIPOS>MOLECULE
ZINC39323847
   49    53     0     0     0
SMALL
USER_CHARGES

@<TRIPOS>ATOM
      1 C1         -0.0187    1.5258    0.0104 C.3       1 <0>        -0.1533
      2 C2          0.0021   -0.0041    0.0020 C.3       1 <0>        -0.0211
      3 C3          0.7309   -0.5033    1.2229 C.2       1 <0>         0.1938
      4 N1          0.1815   -0.7748    2.3759 N.2       1 <0>        -0.4328
      5 C4          1.1332   -1.1906    3.2151 C.2       1 <0>        -0.0113
      6 C5          2.3143   -1.1674    2.5398 C.2       1 <0>         0.2088
      7 O1          2.0530   -0.7469    1.2992 O.3       1 <0>        -0.1889
      8 N2          3.5168   -1.5396    3.1379 N.pl3     1 <0>        -0.6140
      9 C6          3.5375   -1.6914    4.5069 C.2       1 <0>         0.5192
     10 C7          2.4023   -1.7336    5.2505 C.2       1 <0>        -0.2517
     11 C8          1.0299   -1.6275    4.6487 C.3       1 <0>         0.1406
     12 C9          0.2880   -2.9215    4.7652 C.ar      1 <0>        -0.1305
     13 C10         0.5579   -4.1777    4.2662 C.ar      1 <0>        -0.0440
     14 C11        -0.3549   -5.1840    4.5633 C.ar      1 <0>        -0.1481
     15 C12        -1.4790   -4.9330    5.3234 C.ar      1 <0>        -0.0795
     16 C13        -1.7566   -3.6728    5.8294 C.ar      1 <0>        -0.1426
     17 C14        -0.8480   -2.6537    5.5388 C.ar      1 <0>         0.1626
     18 N3         -0.8736   -1.3213    5.9106 N.am      1 <0>        -0.5437
     19 C15         0.1906   -0.6422    5.4340 C.2       1 <0>         0.5463
     20 O2          0.4298    0.5348    5.6032 O.2       1 <0>        -0.4774
     21 C16        -1.9314   -0.7187    6.7255 C.3       1 <0>         0.1525
     22 C17        -1.5656   -0.8268    8.1834 C.ar      1 <0>        -0.1106
     23 C18        -1.9489   -1.9378    8.9117 C.ar      1 <0>        -0.0844
     24 C19        -1.6137   -2.0376   10.2489 C.ar      1 <0>        -0.1140
     25 C20        -0.8949   -1.0264   10.8587 C.ar      1 <0>        -0.0814
     26 C21        -0.5108    0.0849   10.1305 C.ar      1 <0>        -0.0878
     27 C22        -0.8421    0.1818    8.7908 C.ar      1 <0>        -0.0662
     28 Br1         0.4719    1.4687   10.9644 Br        1 <0>        -0.0479
     29 C23         2.5182   -1.8858    6.6697 C.1       1 <0>         0.2651
     30 N4          2.6101   -2.0066    7.7955 N.1       1 <0>        -0.4281
     31 N5          4.7506   -1.8046    5.1428 N.pl3     1 <0>        -0.8468
     32 H1          1.0039    1.9031    0.0027 H         1 <0>         0.0599
     33 H2         -0.5459    1.8868   -0.8726 H         1 <0>         0.0757
     34 H3         -0.5289    1.8773    0.9072 H         1 <0>         0.0657
     35 H4         -1.0205   -0.3814    0.0098 H         1 <0>         0.1117
     36 H5          0.5123   -0.3556   -0.8948 H         1 <0>         0.0962
     37 H6          4.3148   -1.6870    2.6065 H         1 <0>         0.4269
     38 H7          1.4382   -4.3716    3.6712 H         1 <0>         0.1294
     39 H8         -0.1805   -6.1827    4.1911 H         1 <0>         0.1252
     40 H9         -2.1632   -5.7427    5.5299 H         1 <0>         0.1268
     41 H10        -2.6391   -3.4870    6.4237 H         1 <0>         0.1319
     42 H11        -2.0440    0.3315    6.4561 H         1 <0>         0.1022
     43 H12        -2.8706   -1.2423    6.5467 H         1 <0>         0.1010
     44 H13        -2.5108   -2.7278    8.4356 H         1 <0>         0.1288
     45 H14        -1.9136   -2.9054   10.8174 H         1 <0>         0.1341
     46 H15        -0.6336   -1.1041   11.9038 H         1 <0>         0.1334
     47 H16        -0.5391    1.0477    8.2208 H         1 <0>         0.1344
     48 H17         5.5723   -1.7770    4.6282 H         1 <0>         0.4088
     49 H18         4.7850   -1.9121    6.1062 H         1 <0>         0.4249
@<TRIPOS>BOND
     1    1    2 1
     2    1   32 1
     3    1   33 1
     4    1   34 1
     5    2    3 1
     6    2   35 1
     7    2   36 1
     8    3    7 1
     9    3    4 2
    10    4    5 1
    11    5   11 1
    12    5    6 2
    13    6    7 1
    14    6    8 1
    15    8    9 1
    16    8   37 1
    17    9   10 2
    18    9   31 1
    19   10   11 1
    20   10   29 1
    21   11   19 1
    22   11   12 1
    23   12   17 ar
    24   12   13 ar
    25   13   14 ar
    26   13   38 1
    27   14   15 ar
    28   14   39 1
    29   15   16 ar
    30   15   40 1
    31   16   17 ar
    32   16   41 1
    33   17   18 1
    34   18   19 am
    35   18   21 1
    36   19   20 2
    37   21   22 1
    38   21   42 1
    39   21   43 1
    40   22   27 ar
    41   22   23 ar
    42   23   24 ar
    43   23   44 1
    44   24   25 ar
    45   24   45 1
    46   25   26 ar
    47   25   46 1
    48   26   27 ar
    49   26   28 1
    50   27   47 1
    51   29   30 3
    52   31   48 1
    53   31   49 1
@<TRIPOS>MOLECULE
ZINC39991733
   53    56     0     0     0
SMALL
USER_CHARGES

@<TRIPOS>ATOM
      1 C1          0.0250    1.5032    0.0055 C.3       1 <0>        -0.1168
      2 C2          0.0339   -0.0037   -0.0015 C.ar      1 <0>        -0.0862
      3 C3          0.6317   -0.6854   -1.0460 C.ar      1 <0>        -0.1081
      4 C4          0.6415   -2.0662   -1.0554 C.ar      1 <0>        -0.1077
      5 C5          0.0507   -2.7705   -0.0142 C.ar      1 <0>         0.1257
      6 C6         -0.5482   -2.0832    1.0331 C.ar      1 <0>        -0.0980
      7 C7         -0.5504   -0.7019    1.0390 C.ar      1 <0>        -0.1049
      8 C8         -1.1904   -2.8434    2.1648 C.3       1 <0>        -0.1181
      9 N1          0.0586   -4.1697   -0.0209 N.am      1 <0>        -0.6544
     10 C9         -0.0404   -4.8386   -1.1868 C.2       1 <0>         0.5428
     11 O1         -0.0541   -4.2300   -2.2358 O.2       1 <0>        -0.4842
     12 C10        -0.1340   -6.3427   -1.1871 C.3       1 <0>        -0.1093
     13 H1         -0.6115   -6.7021   -0.2755 H         1 <0>         0.1801
     14 C11        -0.8654   -6.8394   -2.4134 C.2       1 <0>         0.0911
     15 C12        -0.1927   -7.6282   -3.2645 C.2       1 <0>        -0.3039
     16 C13         1.2125   -7.9508   -2.9369 C.2       1 <0>         0.2824
     17 N2          1.9225   -8.7180   -3.7294 N.2       1 <0>        -0.5222
     18 C14         1.4089   -9.2247   -4.8394 C.2       1 <0>         0.4642
     19 N3          0.1763   -9.0071   -5.2304 N.2       1 <0>        -0.5926
     20 C15        -0.6794   -8.2475   -4.5385 C.2       1 <0>         0.5585
     21 O2         -1.8194   -8.0659   -4.9313 O.2       1 <0>        -0.4333
     22 C16         2.2871  -10.0970   -5.6990 C.3       1 <0>        -0.0791
     23 S1          1.3500  -10.6577   -7.1474 S.3       1 <0>         0.1275
     24 C17         2.4987  -11.6523   -8.0395 C.2       1 <0>         0.0617
     25 N4          3.7286  -11.9264   -7.7294 N.2       1 <0>        -0.2489
     26 N5          4.5441  -12.7210   -8.5036 N.pl3     1 <0>        -0.6093
     27 C18         3.9201  -13.2541   -9.7358 C.3       1 <0>         0.3425
     28 H2          3.8786  -14.3432   -9.7201 H         1 <0>         0.1310
     29 S2          2.2386  -12.5234   -9.5764 S.3       1 <0>        -0.2188
     30 N6          4.6094  -12.7668  -10.9380 N.3       1 <0>        -0.6695
     31 C19         4.2316  -13.5563  -12.1178 C.3       1 <0>         0.0230
     32 S3          1.5246   -7.1056   -1.4063 S.3       1 <0>         0.0689
     33 C20        -2.3014   -6.4615   -2.6706 C.3       1 <0>        -0.1377
     34 H3          0.9181    1.8695    0.5119 H         1 <0>         0.0724
     35 H4          0.0124    1.8713   -1.0204 H         1 <0>         0.0681
     36 H5         -0.8618    1.8589    0.5300 H         1 <0>         0.0675
     37 H6          1.0909   -0.1372   -1.8553 H         1 <0>         0.1276
     38 H7          1.1078   -2.5980   -1.8716 H         1 <0>         0.1398
     39 H8         -1.0125   -0.1666    1.8554 H         1 <0>         0.1285
     40 H9         -0.4523   -3.0237    2.9464 H         1 <0>         0.0743
     41 H10        -2.0158   -2.2596    2.5723 H         1 <0>         0.0747
     42 H11        -1.5676   -3.7965    1.7943 H         1 <0>         0.0631
     43 H12         0.1353   -4.6583    0.8135 H         1 <0>         0.4147
     44 H13         3.1561   -9.5265   -6.0270 H         1 <0>         0.1360
     45 H14         2.6165  -10.9614   -5.1224 H         1 <0>         0.1368
     46 H15         5.4621  -12.9172   -8.2593 H         1 <0>         0.4383
     47 H16         4.4276  -11.7855  -11.0863 H         1 <0>         0.3580
     48 H17         4.7561  -13.1744  -12.9937 H         1 <0>         0.0825
     49 H18         4.5026  -14.6000  -11.9585 H         1 <0>         0.0738
     50 H19         3.1560  -13.4803  -12.2767 H         1 <0>         0.0387
     51 H20        -2.3361   -5.5415   -3.2541 H         1 <0>         0.1115
     52 H21        -2.7941   -7.2612   -3.2235 H         1 <0>         0.1110
     53 H22        -2.8126   -6.3084   -1.7201 H         1 <0>         0.0867
@<TRIPOS>BOND
     1    1    2 1
     2    1   34 1
     3    1   35 1
     4    1   36 1
     5    2    7 ar
     6    2    3 ar
     7    3    4 ar
     8    3   37 1
     9    4    5 ar
    10    4   38 1
    11    5    6 ar
    12    5    9 1
    13    6    7 ar
    14    6    8 1
    15    7   39 1
    16    8   40 1
    17    8   41 1
    18    8   42 1
    19    9   10 am
    20    9   43 1
    21   10   11 2
    22   10   12 1
    23   12   13 1
    24   12   32 1
    25   12   14 1
    26   14   15 2
    27   14   33 1
    28   15   20 1
    29   15   16 1
    30   16   17 2
    31   16   32 1
    32   17   18 1
    33   18   19 2
    34   18   22 1
    35   19   20 1
    36   20   21 2
    37   22   23 1
    38   22   44 1
    39   22   45 1
    40   23   24 1
    41   24   29 1
    42   24   25 2
    43   25   26 1
    44   26   27 1
    45   26   46 1
    46   27   28 1
    47   27   29 1
    48   27   30 1
    49   30   31 1
    50   30   47 1
    51   31   48 1
    52   31   49 1
    53   31   50 1
    54   33   51 1
    55   33   52 1
    56   33   53 1
@<TRIPOS>MOLECULE
ZINC15930144
   57    60     0     0     0
SMALL
USER_CHARGES

@<TRIPOS>ATOM
      1 C1         -0.3545    1.6789    0.4457 C.3       1 <0>        -0.1184
      2 C2         -0.3900    0.1727    0.4092 C.ar      1 <0>        -0.0711
      3 C3         -1.5260   -0.4801   -0.0327 C.ar      1 <0>        -0.1113
      4 C4         -1.5616   -1.8605   -0.0673 C.ar      1 <0>        -0.0839
      5 C5         -0.4552   -2.5924    0.3422 C.ar      1 <0>         0.1124
      6 C6          0.6840   -1.9341    0.7854 C.ar      1 <0>        -0.0862
      7 C7          0.7155   -0.5535    0.8124 C.ar      1 <0>        -0.1118
      8 N1         -0.4884   -3.9931    0.3087 N.am      1 <0>        -0.5093
      9 C8         -0.2973   -4.6843    1.4512 C.2       1 <0>         0.5816
     10 O1         -0.0976   -4.1081    2.5041 O.2       1 <0>        -0.5066
     11 C9         -0.3374   -6.1560    1.3899 C.2       1 <0>        -0.4000
     12 C10        -0.1506   -6.9308    2.5201 C.2       1 <0>         0.3233
     13 N2         -0.0801   -6.3467    3.7343 N.pl3     1 <0>        -0.6042
     14 C11         0.2211   -7.1144    4.8627 C.ar      1 <0>         0.1947
     15 C12         0.4538   -8.4780    4.7351 C.ar      1 <0>        -0.1813
     16 C13         0.7511   -9.2337    5.8521 C.ar      1 <0>         0.0216
     17 C14         0.8168   -8.6346    7.0967 C.ar      1 <0>        -0.6956
     18 C15         0.5857   -7.2774    7.2273 C.ar      1 <0>         0.0223
     19 C16         0.2940   -6.5147    6.1136 C.ar      1 <0>        -0.1617
     20 S1          1.1953   -9.6027    8.5194 S.o2      1 <0>         2.6935
     21 O2          0.6602   -8.9079    9.6375 O.2       1 <0>        -0.9437
     22 O3          0.8316  -10.9407    8.2086 O.2       1 <0>        -0.9461
     23 N3          2.8417   -9.5888    8.6972 N.pl3     1 <0>        -1.0520
     24 C17         3.5123   -8.3802    8.8981 C.ar      1 <0>         0.1498
     25 C18         2.9207   -7.3723    9.6493 C.ar      1 <0>        -0.1720
     26 C19         3.5866   -6.1788    9.8464 C.ar      1 <0>        -0.0948
     27 C20         4.8410   -5.9860    9.2966 C.ar      1 <0>        -0.1280
     28 C21         5.4325   -6.9868    8.5482 C.ar      1 <0>        -0.0977
     29 C22         4.7745   -8.1854    8.3523 C.ar      1 <0>        -0.1017
     30 C23         5.4228   -9.2782    7.5420 C.3       1 <0>        -0.1150
     31 C24        -0.5857   -6.7663    0.0715 C.2       1 <0>         0.5893
     32 O4         -0.6333   -7.9751   -0.0585 O.2       1 <0>        -0.4997
     33 N4         -0.7593   -5.9484   -0.9871 N.am      1 <0>        -0.6598
     34 C25        -0.7148   -4.6150   -0.8569 C.2       1 <0>         0.7114
     35 O5         -0.8838   -3.9340   -1.8492 O.2       1 <0>        -0.5145
     36 H1          0.0147    2.0568   -0.5077 H         1 <0>         0.0751
     37 H2         -1.3594    2.0618    0.6238 H         1 <0>         0.0698
     38 H3          0.3069    2.0074    1.2475 H         1 <0>         0.0695
     39 H4         -2.3865    0.0898   -0.3507 H         1 <0>         0.1322
     40 H5         -2.4493   -2.3698   -0.4122 H         1 <0>         0.1270
     41 H6          1.5461   -2.5008    1.1045 H         1 <0>         0.1255
     42 H7          1.6029   -0.0407    1.1529 H         1 <0>         0.1317
     43 H8         -0.0610   -8.0033    2.4308 H         1 <0>         0.1875
     44 H9         -0.2385   -5.3939    3.8241 H         1 <0>         0.4356
     45 H10         0.4019   -8.9467    3.7634 H         1 <0>         0.1447
     46 H11         0.9321  -10.2938    5.7535 H         1 <0>         0.1520
     47 H12         0.6375   -6.8127    8.2009 H         1 <0>         0.1509
     48 H13         0.1180   -5.4540    6.2157 H         1 <0>         0.1449
     49 H14         3.3404  -10.4201    8.6618 H         1 <0>         0.4272
     50 H15         1.9409   -7.5219   10.0783 H         1 <0>         0.1611
     51 H16         3.1273   -5.3948   10.4302 H         1 <0>         0.1307
     52 H17         5.3595   -5.0515    9.4520 H         1 <0>         0.1260
     53 H18         6.4118   -6.8328    8.1197 H         1 <0>         0.1274
     54 H19         5.1513   -9.1623    6.4927 H         1 <0>         0.0733
     55 H20         6.5059   -9.2140    7.6462 H         1 <0>         0.0721
     56 H21         5.0801  -10.2487    7.9009 H         1 <0>         0.0639
     57 H22        -0.9234   -6.3339   -1.8619 H         1 <0>         0.4382
@<TRIPOS>BOND
     1    1    2 1
     2    1   36 1
     3    1   37 1
     4    1   38 1
     5    2    7 ar
     6    2    3 ar
     7    3    4 ar
     8    3   39 1
     9    4    5 ar
    10    4   40 1
    11    5    6 ar
    12    5    8 1
    13    6    7 ar
    14    6   41 1
    15    7   42 1
    16    8   34 am
    17    8    9 am
    18    9   10 2
    19    9   11 1
    20   11   12 2
    21   11   31 1
    22   12   13 1
    23   12   43 1
    24   13   14 1
    25   13   44 1
    26   14   19 ar
    27   14   15 ar
    28   15   16 ar
    29   15   45 1
    30   16   17 ar
    31   16   46 1
    32   17   18 ar
    33   17   20 1
    34   18   19 ar
    35   18   47 1
    36   19   48 1
    37   20   21 2
    38   20   22 2
    39   20   23 1
    40   23   24 1
    41   23   49 1
    42   24   29 ar
    43   24   25 ar
    44   25   26 ar
    45   25   50 1
    46   26   27 ar
    47   26   51 1
    48   27   28 ar
    49   27   52 1
    50   28   29 ar
    51   28   53 1
    52   29   30 1
    53   30   54 1
    54   30   55 1
    55   30   56 1
    56   31   32 2
    57   31   33 am
    58   33   34 am
    59   33   57 1
    60   34   35 2
@<TRIPOS>MOLECULE
ZINC39607174
   74    77     0     0     0
SMALL
USER_CHARGES

@<TRIPOS>ATOM
      1 C1          4.4883   -6.1983    5.4529 C.3       1 <0>        -0.1234
      2 C2          3.6428   -6.2003    4.2055 C.ar      1 <0>        -0.0642
      3 C3          3.2180   -5.0046    3.6565 C.ar      1 <0>        -0.1228
      4 C4          2.4425   -5.0064    2.5124 C.ar      1 <0>        -0.0882
      5 C5          2.0920   -6.2038    1.9167 C.ar      1 <0>        -0.1241
      6 C6          2.5175   -7.3991    2.4650 C.ar      1 <0>        -0.0708
      7 C7          3.2968   -7.3971    3.6070 C.ar      1 <0>        -0.1241
      8 C8          2.1351   -8.7043    1.8160 C.3       1 <0>        -0.1196
      9 C9          1.2457   -6.2058    0.6698 C.3       1 <0>         0.1627
     10 N1         -0.1457   -6.4968    1.0245 N.am      1 <0>        -0.7258
     11 C10        -1.0890   -6.5503    0.0634 C.2       1 <0>         0.5128
     12 O1         -0.8043   -6.2710   -1.0820 O.2       1 <0>        -0.5092
     13 C11        -2.4976   -6.9571    0.4120 C.3       1 <0>        -0.1151
     14 H1         -2.7753   -6.5616    1.3890 H         1 <0>         0.1202
     15 C12        -3.4839   -6.4613   -0.6692 C.3       1 <0>         0.0922
     16 N2         -3.6438   -7.6139   -1.5868 N.am      1 <0>        -0.6038
     17 C13        -3.6797   -8.7954   -0.6919 C.3       1 <0>         0.1113
     18 C14        -2.6319   -8.4890    0.3966 C.3       1 <0>        -0.0731
     19 C15        -3.1172   -8.9907    1.7532 C.3       1 <0>        -0.1344
     20 C16        -3.1868  -10.5202    1.7317 C.3       1 <0>        -0.0102
     21 N3         -1.8586  -11.0683    1.4314 N.4       1 <0>        -0.5049
     22 C17        -1.4396  -10.6566    0.0861 C.3       1 <0>        -0.0098
     23 C18        -1.2960   -9.1329    0.0380 C.3       1 <0>        -0.1517
     24 C19        -3.7361   -7.5928   -2.9312 C.2       1 <0>         0.6235
     25 O2         -3.8559   -8.6337   -3.5490 O.2       1 <0>        -0.5199
     26 C20        -3.6920   -6.3104   -3.6518 C.2       1 <0>        -0.0397
     27 C21        -3.7720   -5.0440   -3.0993 C.2       1 <0>        -0.1900
     28 C22        -3.6845   -4.1629   -4.1796 C.2       1 <0>         0.0228
     29 N4         -3.5633   -4.8758   -5.2702 N.2       1 <0>        -0.2609
     30 N5         -3.5580   -6.1314   -4.9994 N.pl3     1 <0>        -0.2388
     31 C23        -3.4314   -7.2073   -5.9856 C.3       1 <0>         0.1756
     32 C24        -4.7144   -8.0408   -5.9984 C.3       1 <0>        -0.1736
     33 C25        -3.2016   -6.6035   -7.3724 C.3       1 <0>        -0.1476
     34 C26        -2.2461   -8.1013   -5.6157 C.3       1 <0>        -0.1755
     35 C27        -3.7236   -2.6584   -4.1028 C.3       1 <0>        -0.0704
     36 H2          5.5421   -6.1555    5.1775 H         1 <0>         0.0768
     37 H3          4.2362   -5.3298    6.0614 H         1 <0>         0.0713
     38 H4          4.2983   -7.1082    6.0221 H         1 <0>         0.0689
     39 H5          3.4917   -4.0692    4.1218 H         1 <0>         0.1278
     40 H6          2.1100   -4.0724    2.0840 H         1 <0>         0.1265
     41 H7          3.6324   -8.3309    4.0333 H         1 <0>         0.1239
     42 H8          2.8926   -8.9811    1.0827 H         1 <0>         0.0757
     43 H9          2.0648   -9.4815    2.5769 H         1 <0>         0.0659
     44 H10         1.1713   -8.5942    1.3189 H         1 <0>         0.0605
     45 H11         1.3017   -5.2282    0.1911 H         1 <0>         0.0801
     46 H12         1.6126   -6.9684   -0.0172 H         1 <0>         0.0773
     47 H13        -0.3879   -6.6509    1.9510 H         1 <0>         0.4000
     48 H14        -4.4410   -6.1986   -0.2187 H         1 <0>         0.0936
     49 H15        -3.0662   -5.6068   -1.2016 H         1 <0>         0.1208
     50 H16        -4.6685   -8.9053   -0.2465 H         1 <0>         0.0886
     51 H17        -3.4063   -9.6967   -1.2406 H         1 <0>         0.0907
     52 H18        -2.4232   -8.6689    2.5296 H         1 <0>         0.0983
     53 H19        -4.1075   -8.5842    1.9584 H         1 <0>         0.1234
     54 H20        -3.5174  -10.8823    2.7052 H         1 <0>         0.1408
     55 H21        -3.8935  -10.8408    0.9662 H         1 <0>         0.1337
     56 H22        -1.1939  -10.7258    2.1088 H         1 <0>         0.4271
     57 H23        -0.4822  -11.1193   -0.1535 H         1 <0>         0.1386
     58 H24        -2.1879  -10.9739   -0.6402 H         1 <0>         0.1352
     59 H25        -1.0023   -8.8266   -0.9660 H         1 <0>         0.1210
     60 H26        -0.5361   -8.8163    0.7525 H         1 <0>         0.1001
     61 H27        -3.8793   -4.7908   -2.0549 H         1 <0>         0.1637
     62 H28        -5.5421   -7.4282   -6.3557 H         1 <0>         0.0566
     63 H29        -4.5845   -8.8974   -6.6598 H         1 <0>         0.0784
     64 H30        -4.9305   -8.3907   -4.9890 H         1 <0>         0.0981
     65 H31        -2.2876   -6.0097   -7.3633 H         1 <0>         0.0679
     66 H32        -3.1074   -7.4040   -8.1062 H         1 <0>         0.0776
     67 H33        -4.0460   -5.9666   -7.6359 H         1 <0>         0.0713
     68 H34        -2.4494   -8.6007   -4.6685 H         1 <0>         0.0955
     69 H35        -2.0971   -8.8481   -6.3956 H         1 <0>         0.0789
     70 H36        -1.3475   -7.4919   -5.5197 H         1 <0>         0.0556
     71 H37        -2.7106   -2.2741   -3.9840 H         1 <0>         0.0749
     72 H38        -4.1586   -2.2590   -5.0190 H         1 <0>         0.0745
     73 H39        -4.3301   -2.3537   -3.2499 H         1 <0>         0.0760
     74 H40        -1.8935  -12.0756    1.4778 H         1 <0>         0.4346
@<TRIPOS>BOND
     1    1    2 1
     2    1   36 1
     3    1   37 1
     4    1   38 1
     5    2    7 ar
     6    2    3 ar
     7    3    4 ar
     8    3   39 1
     9    4    5 ar
    10    4   40 1
    11    5    6 ar
    12    5    9 1
    13    6    7 ar
    14    6    8 1
    15    7   41 1
    16    8   42 1
    17    8   43 1
    18    8   44 1
    19    9   10 1
    20    9   45 1
    21    9   46 1
    22   10   11 am
    23   10   47 1
    24   11   12 2
    25   11   13 1
    26   13   14 1
    27   13   18 1
    28   13   15 1
    29   15   16 1
    30   15   48 1
    31   15   49 1
    32   16   17 1
    33   16   24 am
    34   17   18 1
    35   17   50 1
    36   17   51 1
    37   18   23 1
    38   18   19 1
    39   19   20 1
    40   19   52 1
    41   19   53 1
    42   20   21 1
    43   20   54 1
    44   20   55 1
    45   21   22 1
    46   21   56 1
    47   21   74 1
    48   22   23 1
    49   22   57 1
    50   22   58 1
    51   23   59 1
    52   23   60 1
    53   24   25 2
    54   24   26 1
    55   26   30 1
    56   26   27 2
    57   27   28 1
    58   27   61 1
    59   28   29 2
    60   28   35 1
    61   29   30 1
    62   30   31 1
    63   31   32 1
    64   31   33 1
    65   31   34 1
    66   32   62 1
    67   32   63 1
    68   32   64 1
    69   33   65 1
    70   33   66 1
    71   33   67 1
    72   34   68 1
    73   34   69 1
    74   34   70 1
    75   35   71 1
    76   35   72 1
    77   35   73 1
@<TRIPOS>MOLECULE
ZINC39652907
   60    63     0     0     0
SMALL
USER_CHARGES

@<TRIPOS>ATOM
      1 C1         -0.0355   -3.2912    1.4523 C.3       1 <0>         0.0649
      2 N1          0.0356   -2.0890    0.6181 N.pl3     1 <0>        -0.4093
      3 C2          0.1688   -2.0693   -0.7305 C.2       1 <0>         0.0275
      4 C3          0.1974   -0.7815   -1.1492 C.2       1 <0>        -0.2069
      5 C4          0.0779    0.0386   -0.0229 C.2       1 <0>        -0.1425
      6 C5         -0.0278   -0.7913    1.0730 C.2       1 <0>        -0.0589
      7 C6         -0.1770   -0.3685    2.4696 C.2       1 <0>         0.6256
      8 O1         -0.1129   -1.1908    3.3644 O.2       1 <0>        -0.5458
      9 N2         -0.3850    0.9306    2.7618 N.am      1 <0>        -0.6092
     10 C7         -0.6332    2.0455    1.8176 C.3       1 <0>         0.0989
     11 C8         -1.7062    2.9137    2.5120 C.3       1 <0>        -0.1155
     12 H1         -1.5168    3.9711    2.3273 H         1 <0>         0.1192
     13 C9         -1.5584    2.5968    4.0096 C.3       1 <0>        -0.0733
     14 C10        -0.4238    1.5660    4.1008 C.3       1 <0>         0.1110
     15 C11        -1.1902    3.8592    4.7831 C.3       1 <0>        -0.1335
     16 C12        -1.1059    3.5309    6.2764 C.3       1 <0>        -0.0105
     17 N3         -2.3978    3.0094    6.7385 N.4       1 <0>        -0.5042
     18 C13        -2.7005    1.7456    6.0559 C.3       1 <0>        -0.0092
     19 C14        -2.8524    1.9984    4.5532 C.3       1 <0>        -0.1463
     20 C15        -3.0819    2.5355    2.0266 C.2       1 <0>         0.5137
     21 O2         -3.2881    1.4202    1.5970 O.2       1 <0>        -0.5093
     22 N4         -4.0831    3.4367    2.0698 N.am      1 <0>        -0.7320
     23 C16        -5.4204    3.0691    1.5979 C.3       1 <0>         0.1213
     24 C17        -6.3631    4.2639    1.7553 C.3       1 <0>        -0.0892
     25 C18        -7.7387    3.8857    1.2699 C.ar      1 <0>        -0.0770
     26 C19        -8.0810    4.0783   -0.0556 C.ar      1 <0>        -0.1056
     27 C20        -9.3424    3.7312   -0.5013 C.ar      1 <0>        -0.0858
     28 C21       -10.2625    3.1911    0.3791 C.ar      1 <0>        -0.0884
     29 C22        -9.9196    2.9985    1.7053 C.ar      1 <0>        -0.0883
     30 C23        -8.6562    3.3410    2.1489 C.ar      1 <0>        -0.1087
     31 Br1       -11.9886    2.7166   -0.2300 Br        1 <0>        -0.0401
     32 H2         -1.0795   -3.5433    1.6381 H         1 <0>         0.0763
     33 H3          0.4523   -4.1194    0.9382 H         1 <0>         0.0884
     34 H4          0.4679   -3.1054    2.4010 H         1 <0>         0.0992
     35 H5          0.2403   -2.9386   -1.3674 H         1 <0>         0.1731
     36 H6          0.2952   -0.4473   -2.1716 H         1 <0>         0.1462
     37 H7          0.0668    1.1185   -0.0136 H         1 <0>         0.1494
     38 H8          0.2790    2.6214    1.6615 H         1 <0>         0.0920
     39 H9         -1.0094    1.6632    0.8687 H         1 <0>         0.1169
     40 H10        -0.6458    0.8239    4.8677 H         1 <0>         0.0888
     41 H11         0.5227    2.0630    4.3137 H         1 <0>         0.0861
     42 H12        -0.2252    4.2296    4.4369 H         1 <0>         0.1229
     43 H13        -1.9526    4.6210    4.6204 H         1 <0>         0.0979
     44 H14        -0.3320    2.7810    6.4401 H         1 <0>         0.1330
     45 H15        -0.8589    4.4347    6.8334 H         1 <0>         0.1405
     46 H16        -2.3584    2.8513    7.7342 H         1 <0>         0.4343
     47 H17        -1.8887    1.0381    6.2248 H         1 <0>         0.1346
     48 H18        -3.6292    1.3332    6.4504 H         1 <0>         0.1381
     49 H19        -3.6745    2.6934    4.3824 H         1 <0>         0.0959
     50 H20        -3.0595    1.0568    4.0449 H         1 <0>         0.1216
     51 H21        -3.9182    4.3287    2.4133 H         1 <0>         0.3993
     52 H22        -5.3691    2.7827    0.5475 H         1 <0>         0.0760
     53 H23        -5.7952    2.2308    2.1851 H         1 <0>         0.0720
     54 H24        -6.4145    4.5502    2.8058 H         1 <0>         0.0793
     55 H25        -5.9883    5.1022    1.1681 H         1 <0>         0.0848
     56 H26        -7.3626    4.5004   -0.7428 H         1 <0>         0.1331
     57 H27        -9.6098    3.8821   -1.5368 H         1 <0>         0.1368
     58 H28       -10.6376    2.5768    2.3930 H         1 <0>         0.1351
     59 H29        -8.3870    3.1869    3.1835 H         1 <0>         0.1287
     60 H30        -3.1223    3.6817    6.5357 H         1 <0>         0.4272
@<TRIPOS>BOND
     1    1    2 1
     2    1   32 1
     3    1   33 1
     4    1   34 1
     5    2    6 1
     6    2    3 1
     7    3    4 2
     8    3   35 1
     9    4    5 1
    10    4   36 1
    11    5    6 2
    12    5   37 1
    13    6    7 1
    14    7    8 2
    15    7    9 am
    16    9   14 1
    17    9   10 1
    18   10   11 1
    19   10   38 1
    20   10   39 1
    21   11   12 1
    22   11   13 1
    23   11   20 1
    24   13   19 1
    25   13   14 1
    26   13   15 1
    27   14   40 1
    28   14   41 1
    29   15   16 1
    30   15   42 1
    31   15   43 1
    32   16   17 1
    33   16   44 1
    34   16   45 1
    35   17   18 1
    36   17   46 1
    37   17   60 1
    38   18   19 1
    39   18   47 1
    40   18   48 1
    41   19   49 1
    42   19   50 1
    43   20   21 2
    44   20   22 am
    45   22   23 1
    46   22   51 1
    47   23   24 1
    48   23   52 1
    49   23   53 1
    50   24   25 1
    51   24   54 1
    52   24   55 1
    53   25   30 ar
    54   25   26 ar
    55   26   27 ar
    56   26   56 1
    57   27   28 ar
    58   27   57 1
    59   28   29 ar
    60   28   31 1
    61   29   30 ar
    62   29   58 1
    63   30   59 1
@<TRIPOS>MOLECULE
ZINC39668901
   67    71     0     0     0
SMALL
USER_CHARGES

@<TRIPOS>ATOM
      1 C1         -0.0292    2.7796   -1.8246 C.ar      1 <0>        -0.1063
      2 C2          0.7465    2.2871   -0.7915 C.ar      1 <0>        -0.1168
      3 C3          1.8880    1.5634   -1.0727 C.ar      1 <0>        -0.1093
      4 C4          2.2618    1.3295   -2.3872 C.ar      1 <0>        -0.1245
      5 C5          1.4900    1.8244   -3.4172 C.ar      1 <0>        -0.0695
      6 C6          0.3421    2.5477   -3.1341 C.ar      1 <0>        -0.1169
      7 C7          1.8704    1.6023   -4.8589 C.3       1 <0>        -0.1173
      8 C8          2.8891    0.4654   -4.9559 C.3       1 <0>         0.0616
      9 O1          3.9324    0.7078   -4.0053 O.3       1 <0>        -0.3771
     10 C9          3.5112    0.5308   -2.6531 C.3       1 <0>         0.1254
     11 H1          3.3098   -0.5252   -2.4731 H         1 <0>         0.0794
     12 C10         4.6221    0.9990   -1.7110 C.3       1 <0>         0.1294
     13 N1          5.8387    0.2241   -1.9672 N.am      1 <0>        -0.7205
     14 C11         6.9544    0.4648   -1.2506 C.2       1 <0>         0.5199
     15 O2          6.9513    1.3230   -0.3936 O.2       1 <0>        -0.5216
     16 C12         8.2059   -0.3324   -1.5142 C.3       1 <0>        -0.1126
     17 H2          7.9521   -1.3175   -1.9055 H         1 <0>         0.1126
     18 C13         9.0410   -0.4659   -0.2210 C.3       1 <0>         0.1163
     19 N2         10.4491   -0.3710   -0.6732 N.am      1 <0>        -0.6181
     20 C14        10.4286    0.6727   -1.7260 C.3       1 <0>         0.0906
     21 C15         9.1198    0.4158   -2.4991 C.3       1 <0>        -0.0712
     22 C16         9.3929   -0.4478   -3.7268 C.3       1 <0>        -0.1358
     23 C17        10.2568    0.3390   -4.7165 C.3       1 <0>        -0.0112
     24 N3          9.5598    1.5710   -5.1052 N.4       1 <0>        -0.5050
     25 C18         9.3832    2.4377   -3.9337 C.3       1 <0>        -0.0073
     26 C19         8.4827    1.7394   -2.9107 C.3       1 <0>        -0.1494
     27 C20        11.5089   -1.0745   -0.2279 C.2       1 <0>         0.5805
     28 O3         11.3451   -1.9907    0.5540 O.2       1 <0>        -0.5054
     29 C21        12.8707   -0.7319   -0.6904 C.ar      1 <0>        -0.1020
     30 C22        13.1342    0.5331   -1.2181 C.ar      1 <0>        -0.1102
     31 C23        14.4073    0.8465   -1.6474 C.ar      1 <0>        -0.0782
     32 C24        15.4216   -0.0901   -1.5563 C.ar      1 <0>        -0.1531
     33 C25        15.1669   -1.3460   -1.0346 C.ar      1 <0>        -0.0688
     34 C26        13.8998   -1.6702   -0.5960 C.ar      1 <0>        -0.0570
     35 C27        16.8097    0.2591   -2.0277 C.3       1 <0>         0.5055
     36 F1         17.5380    0.8082   -0.9670 F         1 <0>        -0.1691
     37 F2         17.4514   -0.8968   -2.4850 F         1 <0>        -0.1713
     38 F3         16.7282    1.1901   -3.0688 F         1 <0>        -0.1758
     39 H3         -0.9261    3.3408   -1.6078 H         1 <0>         0.1283
     40 H4          0.4601    2.4686    0.2339 H         1 <0>         0.1284
     41 H5          2.4927    1.1780   -0.2652 H         1 <0>         0.1256
     42 H6         -0.2642    2.9318   -3.9410 H         1 <0>         0.1264
     43 H7          0.9808    1.3418   -5.4324 H         1 <0>         0.0894
     44 H8          2.3068    2.5155   -5.2634 H         1 <0>         0.0863
     45 H9          2.4018   -0.4833   -4.7309 H         1 <0>         0.0601
     46 H10         3.3095    0.4351   -5.9612 H         1 <0>         0.1029
     47 H11         4.8222    2.0567   -1.8825 H         1 <0>         0.0820
     48 H12         4.3083    0.8515   -0.6776 H         1 <0>         0.0910
     49 H13         5.8411   -0.4623   -2.6527 H         1 <0>         0.4051
     50 H14         8.8075    0.3460    0.4677 H         1 <0>         0.1015
     51 H15         8.8579   -1.4308    0.2516 H         1 <0>         0.0995
     52 H16        10.4177    1.6659   -1.2770 H         1 <0>         0.0926
     53 H17        11.2880    0.5627   -2.3875 H         1 <0>         0.0945
     54 H18         9.9187   -1.3536   -3.4249 H         1 <0>         0.1184
     55 H19         8.4485   -0.7154   -4.2008 H         1 <0>         0.0999
     56 H20        11.2074    0.5923   -4.2472 H         1 <0>         0.1312
     57 H21        10.4400   -0.2694   -5.6021 H         1 <0>         0.1409
     58 H22        10.1028    2.0573   -5.8028 H         1 <0>         0.4342
     59 H23        10.3546    2.6414   -3.4831 H         1 <0>         0.1317
     60 H24         8.9225    3.3760   -4.2424 H         1 <0>         0.1403
     61 H25         7.5056    1.5503   -3.3553 H         1 <0>         0.1019
     62 H26         8.3669    2.3759   -2.0335 H         1 <0>         0.1272
     63 H27        12.3432    1.2648   -1.2904 H         1 <0>         0.1443
     64 H28        14.6125    1.8250   -2.0559 H         1 <0>         0.1447
     65 H29        15.9630   -2.0727   -0.9666 H         1 <0>         0.1502
     66 H30        13.7034   -2.6492   -0.1845 H         1 <0>         0.1520
     67 H31         8.6560    1.3379   -5.4886 H         1 <0>         0.4298
@<TRIPOS>BOND
     1    1    6 ar
     2    1    2 ar
     3    1   39 1
     4    2    3 ar
     5    2   40 1
     6    3    4 ar
     7    3   41 1
     8    4   10 1
     9    4    5 ar
    10    5    6 ar
    11    5    7 1
    12    6   42 1
    13    7    8 1
    14    7   43 1
    15    7   44 1
    16    8    9 1
    17    8   45 1
    18    8   46 1
    19    9   10 1
    20   10   11 1
    21   10   12 1
    22   12   13 1
    23   12   47 1
    24   12   48 1
    25   13   14 am
    26   13   49 1
    27   14   15 2
    28   14   16 1
    29   16   17 1
    30   16   21 1
    31   16   18 1
    32   18   19 1
    33   18   50 1
    34   18   51 1
    35   19   20 1
    36   19   27 am
    37   20   21 1
    38   20   52 1
    39   20   53 1
    40   21   26 1
    41   21   22 1
    42   22   23 1
    43   22   54 1
    44   22   55 1
    45   23   24 1
    46   23   56 1
    47   23   57 1
    48   24   25 1
    49   24   58 1
    50   24   67 1
    51   25   26 1
    52   25   59 1
    53   25   60 1
    54   26   61 1
    55   26   62 1
    56   27   28 2
    57   27   29 1
    58   29   34 ar
    59   29   30 ar
    60   30   31 ar
    61   30   63 1
    62   31   32 ar
    63   31   64 1
    64   32   33 ar
    65   32   35 1
    66   33   34 ar
    67   33   65 1
    68   34   66 1
    69   35   36 1
    70   35   37 1
    71   35   38 1
@<TRIPOS>MOLECULE
ZINC39685974
   69    72     0     0     0
SMALL
USER_CHARGES

@<TRIPOS>ATOM
      1 C1         -0.1538   -1.0352   -5.1057 C.3       1 <0>        -0.1420
      2 C2         -0.1066   -1.9657   -3.8921 C.3       1 <0>        -0.1145
      3 C3          1.3121   -2.5133   -3.7242 C.3       1 <0>        -0.1391
      4 C4         -0.4986   -1.1987   -2.6555 C.2       1 <0>         0.5195
      5 O1          0.3578   -0.7519   -1.9221 O.2       1 <0>        -0.5273
      6 N1         -1.8009   -1.0092   -2.3646 N.am      1 <0>        -0.6191
      7 C5         -2.8495   -1.6233   -3.1905 C.3       1 <0>         0.1077
      8 C6         -3.8196   -0.5299   -3.6490 C.3       1 <0>        -0.1412
      9 C7         -4.3447    0.2260   -2.4264 C.3       1 <0>         0.1449
     10 C8         -3.1764    0.8921   -1.6959 C.3       1 <0>        -0.1445
     11 C9         -2.1989   -0.1897   -1.2119 C.3       1 <0>         0.1124
     12 N2         -5.2981    1.2509   -2.8586 N.am      1 <0>        -0.7240
     13 C10        -6.2470    1.6901   -2.0082 C.2       1 <0>         0.5213
     14 O2         -6.3116    1.2368   -0.8851 O.2       1 <0>        -0.5175
     15 C11        -7.2278    2.7443   -2.4528 C.3       1 <0>        -0.1140
     16 H1         -6.7834    3.3741   -3.2235 H         1 <0>         0.1128
     17 C12        -7.6770    3.6029   -1.2493 C.3       1 <0>         0.1167
     18 N3         -9.1120    3.8757   -1.4990 N.am      1 <0>        -0.6176
     19 C13        -9.6388    2.6038   -2.0493 C.3       1 <0>         0.0892
     20 C14        -8.5179    2.0895   -2.9744 C.3       1 <0>        -0.0719
     21 C15        -8.4140    0.5702   -2.8824 C.3       1 <0>        -0.1477
     22 C16        -9.6843   -0.0598   -3.4606 C.3       1 <0>        -0.0087
     23 N4         -9.8460    0.3559   -4.8591 N.4       1 <0>        -0.5047
     24 C17       -10.0385    1.8094   -4.9303 C.3       1 <0>        -0.0119
     25 C18        -8.7832    2.5184   -4.4143 C.3       1 <0>        -0.1356
     26 C19        -9.7861    5.0214   -1.2765 C.2       1 <0>         0.5852
     27 O3         -9.1871    6.0223   -0.9347 O.2       1 <0>        -0.5004
     28 C20       -11.2541    5.0607   -1.4481 C.ar      1 <0>        -0.0745
     29 C21       -11.9952    3.8788   -1.4129 C.ar      1 <0>        -0.1580
     30 C22       -13.3672    3.9214   -1.5739 C.ar      1 <0>         0.1280
     31 C23       -14.0068    5.1345   -1.7699 C.ar      1 <0>        -0.1643
     32 C24       -13.2760    6.3108   -1.8057 C.ar      1 <0>         0.1399
     33 C25       -11.9043    6.2805   -1.6400 C.ar      1 <0>        -0.1042
     34 F1        -13.9061    7.4905   -1.9972 F         1 <0>        -0.1162
     35 F2        -14.0858    2.7779   -1.5405 F         1 <0>        -0.1244
     36 H2          0.2047   -1.5682   -5.9864 H         1 <0>         0.0724
     37 H3         -1.1798   -0.7070   -5.2723 H         1 <0>         0.0558
     38 H4          0.4802   -0.1675   -4.9232 H         1 <0>         0.0637
     39 H5         -0.8002   -2.7931   -4.0415 H         1 <0>         0.0921
     40 H6          2.0057   -1.6859   -3.5747 H         1 <0>         0.0685
     41 H7          1.3457   -3.1762   -2.8596 H         1 <0>         0.0596
     42 H8          1.5956   -3.0681   -4.6186 H         1 <0>         0.0659
     43 H9         -2.3974   -2.0991   -4.0608 H         1 <0>         0.0972
     44 H10        -3.3882   -2.3671   -2.6036 H         1 <0>         0.0744
     45 H11        -3.2999    0.1637   -4.3101 H         1 <0>         0.0770
     46 H12        -4.6547   -0.9846   -4.1819 H         1 <0>         0.0799
     47 H13        -4.8426   -0.4724   -1.7539 H         1 <0>         0.0951
     48 H14        -2.6628    1.5723   -2.3753 H         1 <0>         0.0713
     49 H15        -3.5537    1.4496   -0.8386 H         1 <0>         0.0826
     50 H16        -2.6857   -0.8190   -0.4669 H         1 <0>         0.0718
     51 H17        -1.3175    0.2807   -0.7763 H         1 <0>         0.0991
     52 H18        -5.2464    1.6134   -3.7568 H         1 <0>         0.4003
     53 H19        -7.5517    3.0486   -0.3192 H         1 <0>         0.1023
     54 H20        -7.1132    4.5352   -1.2161 H         1 <0>         0.1003
     55 H21        -9.8275    1.8911   -1.2464 H         1 <0>         0.0936
     56 H22       -10.5493    2.7845   -2.6206 H         1 <0>         0.0947
     57 H23        -7.5481    0.2297   -3.4500 H         1 <0>         0.0984
     58 H24        -8.3044    0.2756   -1.8387 H         1 <0>         0.1283
     59 H25        -9.6057   -1.1458   -3.4114 H         1 <0>         0.1411
     60 H26       -10.5480    0.2682   -2.8822 H         1 <0>         0.1327
     61 H27        -9.0214    0.1011   -5.3818 H         1 <0>         0.4286
     62 H28       -10.2211    2.1012   -5.9645 H         1 <0>         0.1416
     63 H29       -10.8937    2.0929   -4.3169 H         1 <0>         0.1313
     64 H30        -8.9338    3.5973   -4.4507 H         1 <0>         0.1193
     65 H31        -7.9306    2.2483   -5.0374 H         1 <0>         0.0991
     66 H32       -11.4975    2.9325   -1.2605 H         1 <0>         0.1522
     67 H33       -15.0791    5.1632   -1.8956 H         1 <0>         0.1599
     68 H34       -11.3361    7.1986   -1.6633 H         1 <0>         0.1601
     69 H35       -10.6492   -0.1083   -5.2558 H         1 <0>         0.4351
@<TRIPOS>BOND
     1    1    2 1
     2    1   36 1
     3    1   37 1
     4    1   38 1
     5    2    3 1
     6    2    4 1
     7    2   39 1
     8    3   40 1
     9    3   41 1
    10    3   42 1
    11    4    5 2
    12    4    6 am
    13    6   11 1
    14    6    7 1
    15    7    8 1
    16    7   43 1
    17    7   44 1
    18    8    9 1
    19    8   45 1
    20    8   46 1
    21    9   10 1
    22    9   12 1
    23    9   47 1
    24   10   11 1
    25   10   48 1
    26   10   49 1
    27   11   50 1
    28   11   51 1
    29   12   13 am
    30   12   52 1
    31   13   14 2
    32   13   15 1
    33   15   16 1
    34   15   20 1
    35   15   17 1
    36   17   18 1
    37   17   53 1
    38   17   54 1
    39   18   19 1
    40   18   26 am
    41   19   20 1
    42   19   55 1
    43   19   56 1
    44   20   25 1
    45   20   21 1
    46   21   22 1
    47   21   57 1
    48   21   58 1
    49   22   23 1
    50   22   59 1
    51   22   60 1
    52   23   24 1
    53   23   61 1
    54   23   69 1
    55   24   25 1
    56   24   62 1
    57   24   63 1
    58   25   64 1
    59   25   65 1
    60   26   27 2
    61   26   28 1
    62   28   33 ar
    63   28   29 ar
    64   29   30 ar
    65   29   66 1
    66   30   31 ar
    67   30   35 1
    68   31   32 ar
    69   31   67 1
    70   32   33 ar
    71   32   34 1
    72   33   68 1
@<TRIPOS>MOLECULE
ZINC63445945
   47    50     0     0     0
SMALL
USER_CHARGES

@<TRIPOS>ATOM
      1 C1          0.2595    1.2308    0.1509 C.ar      1 <0>        -0.1464
      2 C2          1.4575    1.9581    0.1251 C.ar      1 <0>         0.0557
      3 C3          2.6688    1.3661    0.0588 C.ar      1 <0>        -0.2093
      4 C4          2.7743   -0.0514    0.0112 C.ar      1 <0>         0.3286
      5 N1          3.8137   -0.8476   -0.0552 N.pl3     1 <0>        -0.5828
      6 C5          3.3390   -2.2356   -0.0790 C.3       1 <0>         0.0606
      7 C6          1.8299   -2.1589   -0.0158 C.2       1 <0>         0.0638
      8 C7          1.5234   -0.8426    0.0372 C.ar      1 <0>        -0.1616
      9 C8          0.2473   -0.1210    0.1104 C.ar      1 <0>        -0.0171
     10 C9          0.8632   -3.3150   -0.0132 C.3       1 <0>        -0.1059
     11 C10         0.5750   -3.7420   -1.4539 C.3       1 <0>         0.1018
     12 N2         -0.3647   -4.8659   -1.4515 N.pl3     1 <0>        -0.6773
     13 C11        -0.7655   -5.4120   -2.6170 C.2       1 <0>         0.3417
     14 C12        -1.5677   -6.5380   -2.6132 C.2       1 <0>        -0.4171
     15 C13        -1.9022   -7.2483   -3.8605 C.2       1 <0>         0.5884
     16 O1         -1.4788   -6.8605   -4.9331 O.2       1 <0>        -0.5039
     17 N3         -2.6901   -8.3403   -3.7806 N.am      1 <0>        -0.6600
     18 C14        -3.1633   -8.7784   -2.6055 C.2       1 <0>         0.7104
     19 O2         -3.8685   -9.7682   -2.6021 O.2       1 <0>        -0.5100
     20 N4         -2.8996   -8.1829   -1.4340 N.am      1 <0>        -0.5146
     21 C15        -2.1207   -7.0840   -1.3611 C.2       1 <0>         0.5869
     22 O3         -1.8849   -6.5551   -0.2911 O.2       1 <0>        -0.5159
     23 C16        -3.4413   -8.7175   -0.2569 C.ar      1 <0>         0.1403
     24 C17        -4.3928   -8.0026    0.4580 C.ar      1 <0>        -0.0878
     25 C18        -4.9249   -8.5317    1.6176 C.ar      1 <0>        -0.0749
     26 C19        -4.5105   -9.7727    2.0667 C.ar      1 <0>        -0.0892
     27 C20        -3.5626  -10.4871    1.3563 C.ar      1 <0>        -0.0736
     28 C21        -3.0315   -9.9653    0.1931 C.ar      1 <0>        -0.0854
     29 I1         -5.3196  -10.5714    3.8264 I         1 <0>        -0.0254
     30 H1         -0.6781    1.7636    0.2091 H         1 <0>         0.1592
     31 H2          1.4093    3.0365    0.1593 H         1 <0>         0.1623
     32 H3          3.5625    1.9721    0.0415 H         1 <0>         0.1618
     33 H4          3.6520   -2.7240   -1.0018 H         1 <0>         0.1751
     34 H5          3.7240   -2.7791    0.7838 H         1 <0>         0.1760
     35 H6         -0.6875   -0.6615    0.1317 H         1 <0>         0.1613
     36 H7          1.2986   -4.1515    0.5334 H         1 <0>         0.1234
     37 H8         -0.0661   -3.0106    0.4682 H         1 <0>         0.1205
     38 H9          0.1397   -2.9056   -2.0006 H         1 <0>         0.0923
     39 H10         1.5043   -4.0465   -1.9354 H         1 <0>         0.0924
     40 H11        -0.6985   -5.2172   -0.6112 H         1 <0>         0.4279
     41 H12        -0.4599   -4.9698   -3.5538 H         1 <0>         0.1813
     42 H13        -2.9197   -8.8194   -4.5922 H         1 <0>         0.4393
     43 H14        -4.7164   -7.0335    0.1080 H         1 <0>         0.1338
     44 H15        -5.6648   -7.9759    2.1743 H         1 <0>         0.1399
     45 H16        -3.2406  -11.4557    1.7094 H         1 <0>         0.1407
     46 H17        -2.2947  -10.5254   -0.3635 H         1 <0>         0.1356
     47 H18         4.7415   -0.5661   -0.0842 H         1 <0>         0.4572
@<TRIPOS>BOND
     1    1    9 ar
     2    1    2 ar
     3    1   30 1
     4    2    3 ar
     5    2   31 1
     6    3    4 ar
     7    3   32 1
     8    4    8 ar
     9    4    5 2
    10    5    6 1
    11    5   47 1
    12    6    7 1
    13    6   33 1
    14    6   34 1
    15    7    8 2
    16    7   10 1
    17    8    9 ar
    18    9   35 1
    19   10   11 1
    20   10   36 1
    21   10   37 1
    22   11   12 1
    23   11   38 1
    24   11   39 1
    25   12   13 1
    26   12   40 1
    27   13   14 2
    28   13   41 1
    29   14   21 1
    30   14   15 1
    31   15   16 2
    32   15   17 am
    33   17   18 am
    34   17   42 1
    35   18   19 2
    36   18   20 am
    37   20   21 am
    38   20   23 1
    39   21   22 2
    40   23   28 ar
    41   23   24 ar
    42   24   25 ar
    43   24   43 1
    44   25   26 ar
    45   25   44 1
    46   26   27 ar
    47   26   29 1
    48   27   28 ar
    49   27   45 1
    50   28   46 1
@<TRIPOS>MOLECULE
ZINC12390218
   51    54     0     0     0
SMALL
USER_CHARGES
(5S)-4,7-dioxo-2-(1-piperidyl)-N-[2-(trifluoromethyl)phenyl]-3,5,6,8-tetrahydropyrido[2,3-d]pyrimidine-5-carboxamide
@<TRIPOS>ATOM
      1 C1          6.3305    2.2021    0.3686 C.ar      1 <0>        -0.1397
      2 C2          5.2929    2.8842    0.9778 C.ar      1 <0>        -0.0663
      3 C3          4.0003    2.4082    0.8801 C.ar      1 <0>        -0.1264
      4 C4          3.7444    1.2367    0.1792 C.ar      1 <0>         0.2140
      5 C5          4.7882    0.5544   -0.4313 C.ar      1 <0>        -0.2152
      6 C6          6.0781    1.0390   -0.3351 C.ar      1 <0>        -0.0537
      7 C7          4.5140   -0.7134   -1.1985 C.3       1 <0>         0.5077
      8 F1          5.7133   -1.2130   -1.7176 F         1 <0>        -0.1751
      9 F2          3.9451   -1.6627   -0.3427 F         1 <0>        -0.1819
     10 F3          3.6292   -0.4416   -2.2476 F         1 <0>        -0.1662
     11 N1          2.4366    0.7484    0.0836 N.am      1 <0>        -0.6734
     12 C8          1.3998    1.6070    0.0179 C.2       1 <0>         0.5525
     13 O1          1.6043    2.7998   -0.0626 O.2       1 <0>        -0.5026
     14 C9         -0.0137    1.0849    0.0445 C.3       1 <0>        -0.0207
     15 H1          0.0017   -0.0049    0.0392 H         1 <0>         0.1020
     16 C10        -0.7152    1.5784    1.3110 C.3       1 <0>        -0.1309
     17 C11        -2.1963    1.3276    1.2014 C.2       1 <0>         0.5387
     18 O2         -2.8214    0.9879    2.1833 O.2       1 <0>        -0.4952
     19 N2         -2.8322    1.4760    0.0267 N.am      1 <0>        -0.6409
     20 C12        -2.1271    1.7437   -1.1337 C.2       1 <0>         0.4646
     21 C13        -0.7543    1.5816   -1.1679 C.2       1 <0>        -0.3403
     22 C14        -0.0629    1.8850   -2.3450 C.2       1 <0>         0.5585
     23 O3          1.1499    1.7589   -2.4052 O.2       1 <0>        -0.5092
     24 N3         -0.7643    2.3200   -3.4139 N.am      1 <0>        -0.6373
     25 H2         -0.3036    2.5433   -4.2377 H         1 <0>         0.4213
     26 C15        -2.1170    2.4457   -3.3357 C.2       1 <0>         0.6109
     27 N4         -2.7705    2.1642   -2.2296 N.2       1 <0>        -0.5897
     28 N5         -2.8137    2.8746   -4.4337 N.pl3     1 <0>        -0.4692
     29 C16        -2.2289    4.1057   -4.9802 C.3       1 <0>         0.0504
     30 C17        -2.9392    4.4742   -6.2847 C.3       1 <0>        -0.1184
     31 C18        -4.4318    4.6748   -6.0083 C.3       1 <0>        -0.1281
     32 C19        -5.0059    3.3947   -5.3950 C.3       1 <0>        -0.1239
     33 C20        -4.2357    3.0576   -4.1163 C.3       1 <0>         0.0706
     34 H3          7.3399    2.5790    0.4424 H         1 <0>         0.1360
     35 H4          5.4933    3.7922    1.5271 H         1 <0>         0.1358
     36 H5          3.1899    2.9436    1.3523 H         1 <0>         0.1440
     37 H6          6.8904    0.5087   -0.8097 H         1 <0>         0.1411
     38 H7          2.2762   -0.2081    0.0647 H         1 <0>         0.4107
     39 H8         -0.3201    1.0451    2.1757 H         1 <0>         0.1226
     40 H9         -0.5363    2.6468    1.4319 H         1 <0>         0.1212
     41 H10        -3.7982    1.3947   -0.0082 H         1 <0>         0.4216
     42 H11        -2.3487    4.9153   -4.2602 H         1 <0>         0.0662
     43 H12        -1.1683    3.9482   -5.1761 H         1 <0>         0.0860
     44 H13        -2.8081    3.6710   -7.0098 H         1 <0>         0.0796
     45 H14        -2.5154    5.3965   -6.6818 H         1 <0>         0.0832
     46 H15        -4.9488    4.8949   -6.9424 H         1 <0>         0.0743
     47 H16        -4.5654    5.5035   -5.3130 H         1 <0>         0.0657
     48 H17        -4.9074    2.5745   -6.1062 H         1 <0>         0.0760
     49 H18        -6.0588    3.5458   -5.1566 H         1 <0>         0.0821
     50 H19        -4.6327    2.1387   -3.6848 H         1 <0>         0.1017
     51 H20        -4.3461    3.8721   -3.4004 H         1 <0>         0.0650
@<TRIPOS>BOND
     1    1    6 ar
     2    1    2 ar
     3    1   34 1
     4    2    3 ar
     5    2   35 1
     6    3    4 ar
     7    3   36 1
     8    4    5 ar
     9    4   11 1
    10    5    6 ar
    11    5    7 1
    12    6   37 1
    13    7    8 1
    14    7    9 1
    15    7   10 1
    16   11   12 am
    17   11   38 1
    18   12   13 2
    19   12   14 1
    20   14   15 1
    21   14   21 1
    22   14   16 1
    23   16   17 1
    24   16   39 1
    25   16   40 1
    26   17   18 2
    27   17   19 am
    28   19   20 1
    29   19   41 1
    30   20   27 1
    31   20   21 2
    32   21   22 1
    33   22   23 2
    34   22   24 am
    35   24   25 1
    36   24   26 1
    37   26   27 2
    38   26   28 1
    39   28   33 1
    40   28   29 1
    41   29   30 1
    42   29   42 1
    43   29   43 1
    44   30   31 1
    45   30   44 1
    46   30   45 1
    47   31   32 1
    48   31   46 1
    49   31   47 1
    50   32   33 1
    51   32   48 1
    52   32   49 1
    53   33   50 1
    54   33   51 1
@<TRIPOS>MOLECULE
ZINC28249894
   64    67     0     0     0
SMALL
USER_CHARGES
(1S,2R,3R,4S)-4-hydroxy-4-methyl-N,N'-bis(o-tolyl)-6-oxo-2-(2-pyridyl)cyclohexane-1,3-dicarboxamide
@<TRIPOS>ATOM
      1 C1          3.2604   -0.6016    1.2954 C.3       1 <0>        -0.1135
      2 C2          2.1016    0.1025    0.6377 C.ar      1 <0>        -0.1147
      3 C3          2.0390    1.4824    0.6410 C.ar      1 <0>        -0.1037
      4 C4          0.9765    2.1291    0.0373 C.ar      1 <0>        -0.1324
      5 C5         -0.0268    1.3973   -0.5714 C.ar      1 <0>        -0.1069
      6 C6          0.0299    0.0175   -0.5782 C.ar      1 <0>        -0.1178
      7 C7          1.0960   -0.6352    0.0273 C.ar      1 <0>         0.1515
      8 N1          1.1567   -2.0331    0.0219 N.am      1 <0>        -0.6721
      9 C8          0.0232   -2.7571    0.1075 C.2       1 <0>         0.5281
     10 O1         -1.0540   -2.1997    0.1068 O.2       1 <0>        -0.4974
     11 C9          0.0941   -4.2594    0.2041 C.3       1 <0>        -0.1579
     12 H1          0.6711   -4.5239    1.1025 H         1 <0>         0.1354
     13 C10        -1.3228   -4.8377    0.2799 C.3       1 <0>         0.0080
     14 H2         -1.9260   -4.4671   -0.5620 H         1 <0>         0.1319
     15 C11        -1.2514   -6.3650    0.2355 C.3       1 <0>        -0.0859
     16 H3         -0.6156   -6.7298    1.0557 H         1 <0>         0.1058
     17 C12        -0.6718   -6.8182   -1.1055 C.3       1 <0>         0.1623
     18 C13         0.7696   -6.3144   -1.2335 C.3       1 <0>        -0.1949
     19 C14         0.7797   -4.8156   -1.0242 C.2       1 <0>         0.3805
     20 O2          1.3169   -4.0822   -1.8192 O.2       1 <0>        -0.4304
     21 C15        -0.6865   -8.3465   -1.1773 C.3       1 <0>        -0.1888
     22 O3         -1.4603   -6.2835   -2.1706 O.3       1 <0>        -0.5675
     23 C16        -2.6360   -6.9363    0.4016 C.2       1 <0>         0.5216
     24 O4         -3.5911   -6.3589   -0.0732 O.2       1 <0>        -0.4667
     25 N2         -2.8128   -8.0887    1.0777 N.am      1 <0>        -0.6852
     26 C17        -4.0863   -8.6624    1.1613 C.ar      1 <0>         0.1560
     27 C18        -5.2178   -7.8651    1.0455 C.ar      1 <0>        -0.1339
     28 C19        -6.4731   -8.4352    1.1223 C.ar      1 <0>        -0.1047
     29 C20        -6.6046   -9.7968    1.3261 C.ar      1 <0>        -0.1390
     30 C21        -5.4803  -10.5923    1.4479 C.ar      1 <0>        -0.1019
     31 C22        -4.2217  -10.0290    1.3658 C.ar      1 <0>        -0.1238
     32 C23        -2.9968  -10.8970    1.4977 C.3       1 <0>        -0.1135
     33 C24        -1.9751   -4.4023    1.5668 C.ar      1 <0>         0.1467
     34 C25        -1.2110   -4.2772    2.7118 C.ar      1 <0>        -0.1838
     35 C26        -1.8199   -3.8711    3.8892 C.ar      1 <0>        -0.0716
     36 C27        -3.1827   -3.6150    3.8732 C.ar      1 <0>        -0.1756
     37 C28        -3.8825   -3.7667    2.6914 C.ar      1 <0>         0.1067
     38 N3         -3.2692   -4.1502    1.5886 N.ar      1 <0>        -0.4427
     39 H4          3.9489    0.1437    1.7204 H         1 <0>         0.0707
     40 H5          3.7927   -1.2084    0.5481 H         1 <0>         0.0662
     41 H6          2.8854   -1.2540    2.0978 H         1 <0>         0.0667
     42 H7          2.8207    2.0567    1.1158 H         1 <0>         0.1247
     43 H8          0.9300    3.2081    0.0409 H         1 <0>         0.1225
     44 H9         -0.8532    1.9055   -1.0460 H         1 <0>         0.1240
     45 H10        -0.7536   -0.5534   -1.0540 H         1 <0>         0.1376
     46 H11         2.1296   -2.5411   -0.0522 H         1 <0>         0.4300
     47 H12         1.3974   -6.8022   -0.4733 H         1 <0>         0.1169
     48 H13         1.1543   -6.5544   -2.2357 H         1 <0>         0.1081
     49 H14        -0.2697   -8.6723   -2.1417 H         1 <0>         0.0720
     50 H15        -1.7212   -8.7080   -1.0842 H         1 <0>         0.0747
     51 H16        -0.0792   -8.7579   -0.3576 H         1 <0>         0.0715
     52 H17        -1.1949   -6.5032   -3.2153 H         1 <0>         0.4129
     53 H18        -1.9560   -8.5782    1.5638 H         1 <0>         0.4251
     54 H19        -5.1158   -6.8011    0.8909 H         1 <0>         0.1554
     55 H20        -7.3533   -7.8165    1.0280 H         1 <0>         0.1224
     56 H21        -7.5875  -10.2396    1.3906 H         1 <0>         0.1202
     57 H22        -5.5863  -11.6553    1.6069 H         1 <0>         0.1226
     58 H23        -3.3030  -11.9419    1.6538 H         1 <0>         0.0700
     59 H24        -2.3981  -10.5582    2.3560 H         1 <0>         0.0646
     60 H25        -2.3953  -10.8243    0.5796 H         1 <0>         0.0669
     61 H26        -0.1524   -4.4897    2.6887 H         1 <0>         0.1262
     62 H27        -1.2473   -3.7606    4.7982 H         1 <0>         0.1323
     63 H28        -3.6907   -3.3013    4.7731 H         1 <0>         0.1334
     64 H29        -4.9441   -3.5692    2.6706 H         1 <0>         0.1543
@<TRIPOS>BOND
     1    1    2 1
     2    1   39 1
     3    1   40 1
     4    1   41 1
     5    2    7 ar
     6    2    3 ar
     7    3    4 ar
     8    3   42 1
     9    4    5 ar
    10    4   43 1
    11    5    6 ar
    12    5   44 1
    13    6    7 ar
    14    6   45 1
    15    7    8 1
    16    8    9 am
    17    8   46 1
    18    9   10 2
    19    9   11 1
    20   11   12 1
    21   11   19 1
    22   11   13 1
    23   13   14 1
    24   13   15 1
    25   13   33 1
    26   15   16 1
    27   15   17 1
    28   15   23 1
    29   17   18 1
    30   17   21 1
    31   17   22 1
    32   18   19 1
    33   18   47 1
    34   18   48 1
    35   19   20 2
    36   21   49 1
    37   21   50 1
    38   21   51 1
    39   22   52 1
    40   23   24 2
    41   23   25 am
    42   25   26 1
    43   25   53 1
    44   26   31 ar
    45   26   27 ar
    46   27   28 ar
    47   27   54 1
    48   28   29 ar
    49   28   55 1
    50   29   30 ar
    51   29   56 1
    52   30   31 ar
    53   30   57 1
    54   31   32 1
    55   32   58 1
    56   32   59 1
    57   32   60 1
    58   33   38 ar
    59   33   34 ar
    60   34   35 ar
    61   34   61 1
    62   35   36 ar
    63   35   62 1
    64   36   37 ar
    65   36   63 1
    66   37   38 ar
    67   37   64 1
@<TRIPOS>MOLECULE
ZINC39682651
   57    59     0     0     0
SMALL
USER_CHARGES

@<TRIPOS>ATOM
      1 C1          1.1291   -0.5393   -0.6436 C.ar      1 <0>        -0.0790
      2 C2          2.3093    0.1743   -0.6664 C.ar      1 <0>        -0.1021
      3 C3          2.3794    1.4215   -0.0690 C.ar      1 <0>        -0.0049
      4 C4          1.2652    1.9604    0.5558 C.ar      1 <0>        -0.0402
      5 C5          0.0792    1.2555    0.5848 C.ar      1 <0>        -0.0394
      6 C6          0.0035   -0.0023   -0.0167 C.ar      1 <0>        -0.1251
      7 C7         -1.2636   -0.7624    0.0108 C.2       1 <0>         0.5922
      8 O1         -2.3216   -0.1762    0.1323 O.2       1 <0>        -0.5221
      9 N1         -1.2462   -2.1056   -0.0989 N.am      1 <0>        -0.6178
     10 C8         -0.0646   -2.9994   -0.1254 C.3       1 <0>         0.0987
     11 C9         -0.4871   -4.2300    0.7080 C.3       1 <0>        -0.1152
     12 H1         -0.1533   -4.1222    1.7401 H         1 <0>         0.1136
     13 C10        -2.0235   -4.2409    0.6404 C.3       1 <0>        -0.0725
     14 C11        -2.4052   -3.0231   -0.2137 C.3       1 <0>         0.1098
     15 C12        -2.5144   -5.5256   -0.0199 C.3       1 <0>        -0.1493
     16 C13        -4.0456   -5.5395   -0.0230 C.3       1 <0>        -0.0071
     17 N2         -4.5406   -5.4547    1.3562 N.4       1 <0>        -0.5048
     18 C14        -4.1420   -4.1743    1.9533 C.3       1 <0>        -0.0101
     19 C15        -2.6148   -4.1028    2.0402 C.3       1 <0>        -0.1352
     20 C16         0.0759   -5.4909    0.1045 C.2       1 <0>         0.5146
     21 O2          0.3464   -5.5293   -1.0771 O.2       1 <0>        -0.5229
     22 N3          0.2789   -6.5759    0.8780 N.am      1 <0>        -0.7232
     23 C17         0.8262   -7.8016    0.2913 C.3       1 <0>         0.1140
     24 C18         0.9564   -8.8724    1.3764 C.3       1 <0>        -0.1302
     25 C19         1.5280  -10.1525    0.7637 C.3       1 <0>        -0.0915
     26 C20         1.6582  -11.2232    1.8488 C.3       1 <0>        -0.1829
     27 C21         2.2213  -12.4841    1.2453 C.2       1 <0>         0.4854
     28 O3          2.4932  -12.5228    0.0575 O.co2     1 <0>        -0.6973
     29 O4          2.4049  -13.4656    1.9450 O.co2     1 <0>        -0.7033
     30 Cl1         1.3623    3.5242    1.3033 Cl        1 <0>        -0.0310
     31 Cl2         3.8683    2.3135   -0.1018 Cl        1 <0>        -0.0291
     32 H2          1.0749   -1.5100   -1.1139 H         1 <0>         0.1517
     33 H3          3.1806   -0.2407   -1.1509 H         1 <0>         0.1547
     34 H4         -0.7883    1.6756    1.0719 H         1 <0>         0.1547
     35 H5          0.1657   -3.2947   -1.1491 H         1 <0>         0.1072
     36 H6          0.7942   -2.5077    0.3315 H         1 <0>         0.1005
     37 H7         -3.3051   -2.5504    0.1798 H         1 <0>         0.0913
     38 H8         -2.5535   -3.3207   -1.2518 H         1 <0>         0.0878
     39 H9         -2.1480   -5.5705   -1.0455 H         1 <0>         0.1267
     40 H10        -2.1438   -6.3858    0.5375 H         1 <0>         0.1018
     41 H11        -4.4153   -4.6880   -0.5944 H         1 <0>         0.1320
     42 H12        -4.3994   -6.4638   -0.4796 H         1 <0>         0.1404
     43 H13        -5.5471   -5.5254    1.3560 H         1 <0>         0.4332
     44 H14        -4.5093   -3.3553    1.3350 H         1 <0>         0.1330
     45 H15        -4.5668   -4.0924    2.9538 H         1 <0>         0.1388
     46 H16        -2.2479   -4.9119    2.6716 H         1 <0>         0.0983
     47 H17        -2.3191   -3.1445    2.4672 H         1 <0>         0.1174
     48 H18         0.0625   -6.5451    1.8230 H         1 <0>         0.3985
     49 H19         0.1588   -8.1585   -0.4931 H         1 <0>         0.0725
     50 H20         1.8081   -7.5939   -0.1339 H         1 <0>         0.0753
     51 H21         1.6239   -8.5155    2.1608 H         1 <0>         0.0650
     52 H22        -0.0255   -9.0801    1.8016 H         1 <0>         0.0597
     53 H23         0.8606  -10.5094   -0.0207 H         1 <0>         0.0627
     54 H24         2.5100   -9.9448    0.3385 H         1 <0>         0.0651
     55 H25         2.3257  -10.8664    2.6332 H         1 <0>         0.0563
     56 H26         0.6763  -11.4309    2.2740 H         1 <0>         0.0539
     57 H27        -4.1530   -6.2123    1.8984 H         1 <0>         0.4295
@<TRIPOS>BOND
     1    1    6 ar
     2    1    2 ar
     3    1   32 1
     4    2    3 ar
     5    2   33 1
     6    3    4 ar
     7    3   31 1
     8    4    5 ar
     9    4   30 1
    10    5    6 ar
    11    5   34 1
    12    6    7 1
    13    7    8 2
    14    7    9 am
    15    9   14 1
    16    9   10 1
    17   10   11 1
    18   10   35 1
    19   10   36 1
    20   11   12 1
    21   11   13 1
    22   11   20 1
    23   13   19 1
    24   13   14 1
    25   13   15 1
    26   14   37 1
    27   14   38 1
    28   15   16 1
    29   15   39 1
    30   15   40 1
    31   16   17 1
    32   16   41 1
    33   16   42 1
    34   17   18 1
    35   17   43 1
    36   17   57 1
    37   18   19 1
    38   18   44 1
    39   18   45 1
    40   19   46 1
    41   19   47 1
    42   20   21 2
    43   20   22 am
    44   22   23 1
    45   22   48 1
    46   23   24 1
    47   23   49 1
    48   23   50 1
    49   24   25 1
    50   24   51 1
    51   24   52 1
    52   25   26 1
    53   25   53 1
    54   25   54 1
    55   26   27 1
    56   26   55 1
    57   26   56 1
    58   27   28 2
    59   27   29 1
@<TRIPOS>MOLECULE
ZINC20566956
   59    64     0     0     0
SMALL
USER_CHARGES

@<TRIPOS>ATOM
      1 C1         -0.0187    1.5258    0.0104 C.3       1 <0>        -0.1625
      2 C2          0.0021   -0.0041    0.0020 C.3       1 <0>         0.1541
      3 C3          0.7421   -0.5109    1.2415 C.3       1 <0>        -0.1580
      4 C4         -1.4333   -0.5336    0.0129 C.3       1 <0>        -0.1446
      5 N1          0.6878   -0.4765   -1.2033 N.am      1 <0>        -0.5521
      6 C5          0.0910   -1.2466   -2.1202 C.2       1 <0>         0.5357
      7 O1         -1.0560   -1.6356   -2.0689 O.2       1 <0>        -0.4633
      8 C6          1.0697   -1.5565   -3.2305 C.3       1 <0>        -0.1248
      9 H1          0.7109   -1.2385   -4.2094 H         1 <0>         0.1465
     10 C7          1.4257   -3.0580   -3.1857 C.3       1 <0>         0.0875
     11 H2          1.1187   -3.4923   -2.2342 H         1 <0>         0.0747
     12 N2          2.9057   -3.1032   -3.3216 N.3       1 <0>        -0.6066
     13 C8          3.3767   -1.9517   -2.5297 C.3       1 <0>         0.1253
     14 C9          2.3602   -0.8117   -2.7880 C.3       1 <0>        -0.1011
     15 H3          2.7054   -0.0897   -3.5281 H         1 <0>         0.1502
     16 C10         1.9601   -0.1683   -1.4796 C.2       1 <0>         0.5317
     17 O2          2.6808    0.5180   -0.7874 O.2       1 <0>        -0.4656
     18 C11         4.7673   -1.5440   -2.9261 C.ar      1 <0>        -0.1237
     19 C12         5.3308   -1.1241   -4.1104 C.ar      1 <0>        -0.0415
     20 C13         6.6778   -0.8126   -4.1641 C.ar      1 <0>        -0.1406
     21 C14         7.4558   -0.9236   -3.0260 C.ar      1 <0>        -0.0760
     22 C15         6.8954   -1.3424   -1.8373 C.ar      1 <0>        -0.1383
     23 C16         5.5401   -1.6583   -1.7743 C.ar      1 <0>         0.1483
     24 N3          4.7537   -2.0965   -0.7065 N.am      1 <0>        -0.6528
     25 C17         3.4709   -2.2927   -1.0677 C.2       1 <0>         0.5018
     26 O3          2.5671   -2.6706   -0.3526 O.2       1 <0>        -0.4803
     27 C18         0.7592   -3.7981   -4.3472 C.3       1 <0>        -0.0271
     28 C19         1.0180   -5.2768   -4.2151 C.2       1 <0>        -0.1747
     29 C20         2.0070   -5.9698   -4.8012 C.2       1 <0>         0.0631
     30 N4          1.9242   -7.2895   -4.4492 N.pl3     1 <0>        -0.5964
     31 H4          2.5302   -7.9852   -4.7487 H         1 <0>         0.4156
     32 C21         0.8526   -7.4829   -3.6065 C.ar      1 <0>         0.0940
     33 C22         0.2416   -6.2295   -3.4178 C.ar      1 <0>        -0.1014
     34 C23        -0.8807   -6.1185   -2.5952 C.ar      1 <0>        -0.0694
     35 C24        -1.3787   -7.2290   -1.9736 C.ar      1 <0>        -0.1458
     36 C25        -0.7773   -8.4668   -2.1532 C.ar      1 <0>        -0.0982
     37 C26         0.3258   -8.6007   -2.9682 C.ar      1 <0>        -0.1327
     38 H5          1.0039    1.9031    0.0027 H         1 <0>         0.0721
     39 H6         -0.5459    1.8868   -0.8726 H         1 <0>         0.0600
     40 H7         -0.5289    1.8773    0.9072 H         1 <0>         0.0767
     41 H8          0.2319   -0.1594    2.1383 H         1 <0>         0.0720
     42 H9          0.7568   -1.6008    1.2356 H         1 <0>         0.0663
     43 H10         1.7647   -0.1336    1.2338 H         1 <0>         0.0676
     44 H11        -1.9605   -0.1726   -0.8702 H         1 <0>         0.0718
     45 H12        -1.4185   -1.6235    0.0069 H         1 <0>         0.0722
     46 H13        -1.9435   -0.1821    0.9097 H         1 <0>         0.0653
     47 H14         3.2760   -3.9683   -2.9573 H         1 <0>         0.3525
     48 H15         4.7211   -1.0382   -4.9977 H         1 <0>         0.1342
     49 H16         7.1208   -0.4840   -5.0926 H         1 <0>         0.1329
     50 H17         8.5075   -0.6814   -3.0684 H         1 <0>         0.1331
     51 H18         7.5093   -1.4260   -0.9527 H         1 <0>         0.1274
     52 H19         5.0920   -2.2429    0.1907 H         1 <0>         0.4153
     53 H20        -0.3149   -3.6139   -4.3268 H         1 <0>         0.0850
     54 H21         1.1714   -3.4399   -5.2905 H         1 <0>         0.0869
     55 H22         2.7568   -5.5483   -5.4542 H         1 <0>         0.1721
     56 H23        -1.3535   -5.1583   -2.4503 H         1 <0>         0.1218
     57 H24        -2.2471   -7.1425   -1.3373 H         1 <0>         0.1214
     58 H25        -1.1821   -9.3351   -1.6547 H         1 <0>         0.1241
     59 H26         0.7874   -9.5680   -3.1006 H         1 <0>         0.1182
@<TRIPOS>BOND
     1    1    2 1
     2    1   38 1
     3    1   39 1
     4    1   40 1
     5    2    3 1
     6    2    4 1
     7    2    5 1
     8    3   41 1
     9    3   42 1
    10    3   43 1
    11    4   44 1
    12    4   45 1
    13    4   46 1
    14    5   16 am
    15    5    6 am
    16    6    7 2
    17    6    8 1
    18    8    9 1
    19    8   14 1
    20    8   10 1
    21   10   11 1
    22   10   12 1
    23   10   27 1
    24   12   13 1
    25   12   47 1
    26   13   25 1
    27   13   14 1
    28   13   18 1
    29   14   15 1
    30   14   16 1
    31   16   17 2
    32   18   23 ar
    33   18   19 ar
    34   19   20 ar
    35   19   48 1
    36   20   21 ar
    37   20   49 1
    38   21   22 ar
    39   21   50 1
    40   22   23 ar
    41   22   51 1
    42   23   24 1
    43   24   25 am
    44   24   52 1
    45   25   26 2
    46   27   28 1
    47   27   53 1
    48   27   54 1
    49   28   33 1
    50   28   29 2
    51   29   30 1
    52   29   55 1
    53   30   31 1
    54   30   32 1
    55   32   37 ar
    56   32   33 ar
    57   33   34 ar
    58   34   35 ar
    59   34   56 1
    60   35   36 ar
    61   35   57 1
    62   36   37 ar
    63   36   58 1
    64   37   59 1
@<TRIPOS>MOLECULE
ZINC13686080
   40    42     0     0     0
SMALL
USER_CHARGES

@<TRIPOS>ATOM
      1 C1          2.1152    1.4180   -0.7400 C.ar      1 <0>        -0.0978
      2 C2          1.1729    2.0858    0.0209 C.ar      1 <0>        -0.0860
      3 C3          0.2522    1.3740    0.7674 C.ar      1 <0>        -0.1620
      4 C4          0.2709   -0.0072    0.7554 C.ar      1 <0>        -0.0722
      5 C5          1.2156   -0.6806   -0.0075 C.ar      1 <0>         0.1453
      6 C6          2.1391    0.0374   -0.7563 C.ar      1 <0>        -0.1112
      7 N1          1.2374   -2.0796   -0.0215 N.am      1 <0>        -0.6693
      8 C7          0.0867   -2.7727    0.0875 C.2       1 <0>         0.5177
      9 O1         -0.9752   -2.1867    0.1014 O.2       1 <0>        -0.5012
     10 C8          0.1193   -4.2757    0.1922 C.3       1 <0>        -0.1186
     11 C9         -1.3099   -4.8103    0.3045 C.3       1 <0>        -0.0814
     12 H1         -1.8429   -4.3345    1.1277 H         1 <0>         0.1666
     13 C10        -1.3224   -6.3242    0.4420 C.2       1 <0>         0.5367
     14 N2         -1.9278   -6.9861   -0.5291 N.am      1 <0>        -0.6496
     15 C11        -2.5145   -6.3480   -1.6057 C.2       1 <0>         0.4104
     16 N3         -3.1397   -6.8874   -2.6246 N.2       1 <0>        -0.3750
     17 N4         -3.6747   -6.0715   -3.6300 N.2       1 <0>        -0.3501
     18 C12        -4.2943   -6.6061   -4.6399 C.2       1 <0>         0.3908
     19 C13        -4.8920   -5.7764   -5.7660 C.3       1 <0>        -0.0270
     20 S1         -5.5895   -7.1139   -6.8197 S.3       1 <0>        -0.1525
     21 C14        -5.0985   -8.5050   -5.8144 C.2       1 <0>         0.5641
     22 N5         -4.4527   -7.9512   -4.7731 N.am      1 <0>        -0.6859
     23 O2         -5.2982   -9.6859   -6.0259 O.2       1 <0>        -0.4331
     24 S2         -2.2218   -4.6141   -1.2822 S.3       1 <0>        -0.0586
     25 O3         -0.8086   -6.8895    1.3838 O.2       1 <0>        -0.4684
     26 C15        -0.7724    2.1058    1.5955 C.3       1 <0>         0.5089
     27 F1         -0.5927    3.4853    1.4475 F         1 <0>        -0.1757
     28 F2         -2.0565    1.7541    1.1659 F         1 <0>        -0.1721
     29 F3         -0.6192    1.7573    2.9417 F         1 <0>        -0.1758
     30 H2          2.8302    1.9768   -1.3255 H         1 <0>         0.1420
     31 H3          1.1565    3.1656    0.0323 H         1 <0>         0.1419
     32 H4         -0.4484   -0.5626    1.3390 H         1 <0>         0.1460
     33 H5          2.8749   -0.4836   -1.3509 H         1 <0>         0.1377
     34 H6          2.0808   -2.5507   -0.1096 H         1 <0>         0.4175
     35 H7          0.5940   -4.6916   -0.6966 H         1 <0>         0.1166
     36 H8          0.6864   -4.5661    1.0766 H         1 <0>         0.1314
     37 H9         -5.6755   -5.1146   -5.3967 H         1 <0>         0.1546
     38 H10        -4.1218   -5.2163   -6.2962 H         1 <0>         0.1543
     39 H11        -1.9611   -7.9545   -0.4847 H         1 <0>         0.4209
     40 H12        -4.0887   -8.5333   -4.0878 H         1 <0>         0.4204
@<TRIPOS>BOND
     1    1    6 ar
     2    1    2 ar
     3    1   30 1
     4    2    3 ar
     5    2   31 1
     6    3    4 ar
     7    3   26 1
     8    4    5 ar
     9    4   32 1
    10    5    6 ar
    11    5    7 1
    12    6   33 1
    13    7    8 am
    14    7   34 1
    15    8    9 2
    16    8   10 1
    17   10   11 1
    18   10   35 1
    19   10   36 1
    20   11   12 1
    21   11   24 1
    22   11   13 1
    23   13   14 am
    24   13   25 2
    25   14   15 1
    26   14   39 1
    27   15   16 2
    28   15   24 1
    29   16   17 1
    30   17   18 2
    31   18   22 1
    32   18   19 1
    33   19   20 1
    34   19   37 1
    35   19   38 1
    36   20   21 1
    37   21   22 am
    38   21   23 2
    39   22   40 1
    40   26   27 1
    41   26   28 1
    42   26   29 1
@<TRIPOS>MOLECULE
ZINC09135472
   64    66     0     0     0
SMALL
USER_CHARGES
N-(3-acetylaminophenyl)-N'-[2-dimethylamino-2-(1-methyl-3,4-dihydro-2H-quinolin-6-yl)-ethyl]-oxamide
@<TRIPOS>ATOM
      1 C1         -6.9981    5.7524   -9.5110 C.3       1 <0>        -0.1725
      2 C2         -5.9613    6.3493   -8.5946 C.2       1 <0>         0.5110
      3 O1         -5.3686    7.3552   -8.9231 O.2       1 <0>        -0.5199
      4 N1         -5.6927    5.7654   -7.4099 N.am      1 <0>        -0.6765
      5 C3         -4.8089    6.3760   -6.5134 C.ar      1 <0>         0.1641
      6 C4         -4.7488    7.7619   -6.4311 C.ar      1 <0>        -0.1231
      7 C5         -3.8773    8.3658   -5.5456 C.ar      1 <0>        -0.0786
      8 C6         -3.0626    7.5947   -4.7389 C.ar      1 <0>        -0.1464
      9 C7         -3.1177    6.2084   -4.8162 C.ar      1 <0>         0.1446
     10 C8         -3.9881    5.5987   -5.7095 C.ar      1 <0>        -0.1420
     11 N2         -2.2940    5.4290   -3.9999 N.am      1 <0>        -0.6346
     12 C9         -2.7540    4.2698   -3.4889 C.2       1 <0>         0.5092
     13 O2         -3.8515    3.8599   -3.8062 O.2       1 <0>        -0.4976
     14 C10        -1.9134    3.4897   -2.5321 C.2       1 <0>         0.5201
     15 O3         -0.8160    3.8996   -2.2149 O.2       1 <0>        -0.4997
     16 N3         -2.3735    2.3306   -2.0211 N.am      1 <0>        -0.6976
     17 C11        -1.5514    1.5684   -1.0780 C.3       1 <0>         0.1016
     18 C12        -2.3512    0.3741   -0.5537 C.3       1 <0>         0.0781
     19 H1         -2.7043   -0.2238   -1.3940 H         1 <0>         0.1501
     20 C13        -3.5317    0.8700    0.2410 C.ar      1 <0>        -0.1866
     21 C14        -3.3618    1.2798    1.5511 C.ar      1 <0>        -0.0921
     22 C15        -4.4422    1.7360    2.2749 C.ar      1 <0>        -0.1494
     23 C16        -5.7131    1.7762    1.6984 C.ar      1 <0>         0.1645
     24 C17        -5.8777    1.3633    0.3880 C.ar      1 <0>        -0.1093
     25 C18        -4.7854    0.9107   -0.3354 C.ar      1 <0>        -0.0566
     26 C19        -7.2212    1.3921   -0.2965 C.3       1 <0>        -0.0862
     27 C20        -8.3284    1.5454    0.7488 C.3       1 <0>        -0.1264
     28 C21        -7.9230    2.6749    1.7040 C.3       1 <0>         0.0508
     29 N4         -6.7674    2.2335    2.4876 N.pl3     1 <0>        -0.4947
     30 C22        -6.3189    3.2895    3.4049 C.3       1 <0>         0.0185
     31 C23        -2.2106   -1.6409    0.7814 C.3       1 <0>        -0.0424
     32 C24        -0.2540   -0.8245   -0.3880 C.3       1 <0>        -0.0523
     33 H2         -7.9739    6.1823   -9.2845 H         1 <0>         0.1010
     34 H3         -6.7365    5.9704  -10.5464 H         1 <0>         0.1003
     35 H4         -7.0339    4.6729   -9.3648 H         1 <0>         0.0830
     36 H5         -6.1120    4.9218   -7.1789 H         1 <0>         0.4131
     37 H6         -5.3845    8.3675   -7.0599 H         1 <0>         0.1390
     38 H7         -3.8329    9.4431   -5.4834 H         1 <0>         0.1370
     39 H8         -2.3826    8.0699   -4.0474 H         1 <0>         0.1316
     40 H9         -4.0295    4.5215   -5.7751 H         1 <0>         0.1397
     41 H10        -1.3910    5.7222   -3.8010 H         1 <0>         0.4256
     42 H11        -3.2506    2.0030   -2.2747 H         1 <0>         0.4185
     43 H12        -0.6546    1.2111   -1.5841 H         1 <0>         0.0978
     44 H13        -1.2667    2.2094   -0.2437 H         1 <0>         0.0978
     45 H14        -2.3825    1.2462    2.0052 H         1 <0>         0.1185
     46 H15        -4.3055    2.0606    3.2958 H         1 <0>         0.1396
     47 H16        -4.9160    0.5879   -1.3577 H         1 <0>         0.1321
     48 H17        -7.2574    2.2328   -0.9893 H         1 <0>         0.0838
     49 H18        -7.3679    0.4627   -0.8467 H         1 <0>         0.0853
     50 H19        -9.2676    1.7980    0.2567 H         1 <0>         0.0876
     51 H20        -8.4416    0.6149    1.3052 H         1 <0>         0.0797
     52 H21        -7.6578    3.5623    1.1294 H         1 <0>         0.0550
     53 H22        -8.7526    2.9037    2.3729 H         1 <0>         0.0953
     54 H23        -7.1660    3.6455    3.9912 H         1 <0>         0.0865
     55 H24        -5.5563    2.8902    4.0736 H         1 <0>         0.0820
     56 H25        -5.9015    4.1166    2.8305 H         1 <0>         0.0466
     57 H26        -2.4646   -2.2744   -0.0685 H         1 <0>         0.1253
     58 H27        -1.5764   -2.1966    1.4720 H         1 <0>         0.1260
     59 H28        -3.1236   -1.3352    1.2923 H         1 <0>         0.1250
     60 H29         0.3493    0.0668   -0.5608 H         1 <0>         0.1248
     61 H30         0.3075   -1.5301    0.2244 H         1 <0>         0.1297
     62 H31        -0.4995   -1.2879   -1.3436 H         1 <0>         0.1273
     63 N5         -1.4855   -0.4345    0.3302 N.4       1 <0>        -0.3915
     64 H32        -1.2294    0.1270    1.1508 H         1 <0>         0.4285
@<TRIPOS>BOND
     1    1    2 1
     2    1   33 1
     3    1   34 1
     4    1   35 1
     5    2    3 2
     6    2    4 am
     7    4    5 1
     8    4   36 1
     9    5   10 ar
    10    5    6 ar
    11    6    7 ar
    12    6   37 1
    13    7    8 ar
    14    7   38 1
    15    8    9 ar
    16    8   39 1
    17    9   10 ar
    18    9   11 1
    19   10   40 1
    20   11   12 am
    21   11   41 1
    22   12   13 2
    23   12   14 1
    24   14   15 2
    25   14   16 am
    26   16   17 1
    27   16   42 1
    28   17   18 1
    29   17   43 1
    30   17   44 1
    31   18   19 1
    32   18   20 1
    33   18   63 1
    34   20   25 ar
    35   20   21 ar
    36   21   22 ar
    37   21   45 1
    38   22   23 ar
    39   22   46 1
    40   23   29 1
    41   23   24 ar
    42   24   25 ar
    43   24   26 1
    44   25   47 1
    45   26   27 1
    46   26   48 1
    47   26   49 1
    48   27   28 1
    49   27   50 1
    50   27   51 1
    51   28   29 1
    52   28   52 1
    53   28   53 1
    54   29   30 1
    55   30   54 1
    56   30   55 1
    57   30   56 1
    58   31   57 1
    59   31   58 1
    60   31   59 1
    61   31   63 1
    62   32   60 1
    63   32   61 1
    64   32   62 1
    65   32   63 1
    66   63   64 1
@<TRIPOS>MOLECULE
ZINC25528100
   55    58     0     0     0
SMALL
USER_CHARGES
2-[4-[2-[[4-amino-5-(2-thienyl)-1,2,4-triazol-3-yl]sulfanyl]acetyl]piperazin-1-yl]-N-(4-fluorophenyl)acetamide
@<TRIPOS>ATOM
      1 C1          0.9958   10.1878    0.8096 C.2       1 <0>        -0.1583
      2 C2          0.3846    8.9641    0.6532 C.2       1 <0>        -0.0907
      3 C3          1.1490    7.8290    0.7520 C.2       1 <0>        -0.1083
      4 S1          2.7726    8.5051    1.0588 S.3       1 <0>         0.0523
      5 C4          2.3328   10.2352    1.0440 C.2       1 <0>        -0.1379
      6 C5          0.7385    6.4208    0.6302 C.2       1 <0>         0.2522
      7 N1         -0.4913    5.9578    0.6769 N.2       1 <0>        -0.2430
      8 N2         -0.4851    4.6811    0.5315 N.2       1 <0>        -0.2795
      9 C6          0.7469    4.2475    0.3914 C.2       1 <0>         0.1138
     10 N3          1.5696    5.3382    0.4457 N.pl3     1 <0>        -0.2046
     11 N4          2.9314    5.3514    0.3392 N.3       1 <0>        -0.7583
     12 S2          1.2458    2.5726    0.1674 S.3       1 <0>         0.0901
     13 C7         -0.3689    1.7557    0.2064 C.3       1 <0>        -0.1549
     14 C8         -0.1849    0.2706    0.0284 C.2       1 <0>         0.5469
     15 O1          0.9282   -0.1902   -0.1111 O.2       1 <0>        -0.4947
     16 N5         -1.2575   -0.5456    0.0242 N.am      1 <0>        -0.6259
     17 C9         -2.6156   -0.0083    0.1978 C.3       1 <0>         0.0831
     18 C10        -3.4966   -0.5481   -0.9400 C.3       1 <0>        -0.0365
     19 N6         -3.4080   -2.0141   -0.9676 N.4       1 <0>        -0.3806
     20 C11        -2.0406   -2.4598   -1.2664 C.3       1 <0>        -0.0323
     21 C12        -1.1004   -1.9978   -0.1480 C.3       1 <0>         0.0920
     22 C13        -4.3676   -2.5816   -1.9242 C.3       1 <0>        -0.0258
     23 C14        -4.0847   -2.0388   -3.3013 C.2       1 <0>         0.5015
     24 O2         -3.1142   -1.3359   -3.4885 O.2       1 <0>        -0.5148
     25 N7         -4.9101   -2.3346   -4.3249 N.am      1 <0>        -0.6559
     26 C15        -4.5955   -1.9124   -5.6224 C.ar      1 <0>         0.1103
     27 C16        -3.9686   -0.6898   -5.8229 C.ar      1 <0>        -0.0856
     28 C17        -3.6540   -0.2778   -7.1031 C.ar      1 <0>        -0.1369
     29 C18        -3.9737   -1.0780   -8.1871 C.ar      1 <0>         0.1055
     30 C19        -4.6041   -2.2950   -7.9897 C.ar      1 <0>        -0.1341
     31 C20        -4.9152   -2.7132   -6.7108 C.ar      1 <0>        -0.1008
     32 F1         -3.6698   -0.6709   -9.4390 F         1 <0>        -0.1299
     33 H1          0.4201   11.0991    0.7418 H         1 <0>         0.1496
     34 H2         -0.6760    8.8989    0.4600 H         1 <0>         0.1486
     35 H3          2.9670   11.0979    1.1850 H         1 <0>         0.1982
     36 H4          3.4808    4.4098    0.1925 H         1 <0>         0.4522
     37 H5          3.4786    6.3037    0.4002 H         1 <0>         0.4464
     38 H6         -0.8557    1.9516    1.1732 H         1 <0>         0.1356
     39 H7         -0.9977    2.1474   -0.6067 H         1 <0>         0.1335
     40 H8         -3.0158   -0.3306    1.1704 H         1 <0>         0.1040
     41 H9         -2.5827    1.0906    0.1608 H         1 <0>         0.1345
     42 H10        -4.5404   -0.2450   -0.7708 H         1 <0>         0.1439
     43 H11        -3.1472   -0.1396   -1.8997 H         1 <0>         0.1545
     44 H12        -2.0195   -3.5575   -1.3347 H         1 <0>         0.1421
     45 H13        -1.7146   -2.0265   -2.2235 H         1 <0>         0.1548
     46 H14        -0.0580   -2.2245   -0.4164 H         1 <0>         0.1387
     47 H15        -1.3562   -2.5083    0.7922 H         1 <0>         0.0988
     48 H16        -4.2704   -3.6772   -1.9348 H         1 <0>         0.1671
     49 H17        -5.3898   -2.3071   -1.6247 H         1 <0>         0.1651
     50 H18        -5.8309   -2.9077   -4.1410 H         1 <0>         0.4483
     51 H19        -3.7231   -0.0634   -4.9780 H         1 <0>         0.1447
     52 H20        -3.1621    0.6709   -7.2591 H         1 <0>         0.1442
     53 H21        -4.8522   -2.9178   -8.8365 H         1 <0>         0.1473
     54 H22        -5.4065   -3.6626   -6.5572 H         1 <0>         0.1407
     55 H23        -3.6687   -2.3839    0.0351 H         1 <0>         0.4488
@<TRIPOS>BOND
     1    1    5 2
     2    1    2 1
     3    1   33 1
     4    2    3 2
     5    2   34 1
     6    3    4 1
     7    3    6 1
     8    4    5 1
     9    5   35 1
    10    6   10 1
    11    6    7 2
    12    7    8 1
    13    8    9 2
    14    9   10 1
    15    9   12 1
    16   10   11 1
    17   11   36 1
    18   11   37 1
    19   12   13 1
    20   13   14 1
    21   13   38 1
    22   13   39 1
    23   14   15 2
    24   14   16 am
    25   16   21 1
    26   16   17 1
    27   17   18 1
    28   17   40 1
    29   17   41 1
    30   18   19 1
    31   18   42 1
    32   18   43 1
    33   19   20 1
    34   19   22 1
    35   19   55 1
    36   20   21 1
    37   20   44 1
    38   20   45 1
    39   21   46 1
    40   21   47 1
    41   22   23 1
    42   22   48 1
    43   22   49 1
    44   23   24 2
    45   23   25 am
    46   25   26 1
    47   25   50 1
    48   26   31 ar
    49   26   27 ar
    50   27   28 ar
    51   27   51 1
    52   28   29 ar
    53   28   52 1
    54   29   30 ar
    55   29   32 1
    56   30   31 ar
    57   30   53 1
    58   31   54 1
@<TRIPOS>MOLECULE
ZINC39693539
   69    72     0     0     0
SMALL
USER_CHARGES

@<TRIPOS>ATOM
      1 C1         -1.1025    1.6153   -8.4390 C.3       1 <0>        -0.1858
      2 C2         -1.3138    1.5347   -6.9258 C.3       1 <0>         0.1350
      3 C3         -1.2128    2.9366   -6.3214 C.3       1 <0>        -0.1871
      4 C4         -2.6982    0.9523   -6.6344 C.3       1 <0>        -0.1429
      5 O1         -0.3123    0.6941   -6.3492 O.3       1 <0>        -0.3553
      6 C5          0.9702    1.0684   -6.5160 C.2       1 <0>         0.6542
      7 O2          1.2320    2.0812   -7.1342 O.2       1 <0>        -0.5622
      8 N1          1.9636    0.3198   -5.9972 N.am      1 <0>        -0.7132
      9 C6          3.3591    0.7271   -6.1787 C.3       1 <0>         0.1298
     10 C7          4.2793   -0.2878   -5.4975 C.3       1 <0>         0.1050
     11 N2          5.6748    0.1195   -5.6790 N.am      1 <0>        -0.7279
     12 C8          6.6682   -0.6291   -5.1602 C.2       1 <0>         0.5160
     13 O3          6.4069   -1.6399   -4.5431 O.2       1 <0>        -0.5063
     14 C9          8.1037   -0.2101   -5.3469 C.3       1 <0>        -0.1132
     15 H1          8.1704    0.8715   -5.4643 H         1 <0>         0.1189
     16 C10         8.9601   -0.6749   -4.1477 C.3       1 <0>         0.1211
     17 N3          9.5416   -1.9671   -4.5814 N.am      1 <0>        -0.6143
     18 C11         9.8821   -1.7575   -6.0091 C.3       1 <0>         0.0975
     19 C12         8.7143   -0.9198   -6.5670 C.3       1 <0>        -0.0721
     20 C13         9.2322    0.1059   -7.5706 C.3       1 <0>        -0.1350
     21 C14         9.7813   -0.6222   -8.8007 C.3       1 <0>        -0.0100
     22 N4          8.7190   -1.4351   -9.4053 N.4       1 <0>        -0.5049
     23 C15         8.2914   -2.4790   -8.4661 C.3       1 <0>        -0.0092
     24 C16         7.6792   -1.8293   -7.2219 C.3       1 <0>        -0.1478
     25 C17         9.7208   -3.0812   -3.8444 C.2       1 <0>         0.5981
     26 O4          9.2992   -3.1305   -2.7040 O.2       1 <0>        -0.5061
     27 C18        10.4246   -4.2352   -4.4176 C.2       1 <0>        -0.1494
     28 C19        11.4559   -4.0663   -5.2854 C.2       1 <0>        -0.2057
     29 S1         11.9603   -5.6150   -5.6854 S.3       1 <0>         0.1774
     30 C20        10.8261   -6.5736   -4.7194 C.ar      1 <0>        -0.1434
     31 C21        10.0405   -5.6046   -4.0667 C.ar      1 <0>        -0.0640
     32 C22         9.0298   -6.0681   -3.2032 C.ar      1 <0>        -0.0645
     33 C23         8.8396   -7.4145   -3.0161 C.ar      1 <0>        -0.1126
     34 C24         9.6309   -8.3495   -3.6675 C.ar      1 <0>        -0.0878
     35 C25        10.6233   -7.9238   -4.5289 C.ar      1 <0>        -0.0748
     36 H2         -0.1162    2.0303   -8.6466 H         1 <0>         0.0851
     37 H3         -1.1745    0.6166   -8.8696 H         1 <0>         0.0595
     38 H4         -1.8664    2.2566   -8.8788 H         1 <0>         0.0737
     39 H5         -1.9766    3.5779   -6.7612 H         1 <0>         0.0738
     40 H6         -1.3632    2.8792   -5.2433 H         1 <0>         0.0611
     41 H7         -0.2264    3.3516   -6.5289 H         1 <0>         0.0857
     42 H8         -2.7702   -0.0465   -7.0650 H         1 <0>         0.0676
     43 H9         -2.8487    0.8948   -5.5564 H         1 <0>         0.0686
     44 H10        -3.4621    1.5935   -7.0743 H         1 <0>         0.0842
     45 H11         1.7546   -0.4886   -5.5036 H         1 <0>         0.4109
     46 H12         3.5897    0.7695   -7.2431 H         1 <0>         0.0753
     47 H13         3.5112    1.7108   -5.7345 H         1 <0>         0.0799
     48 H14         4.0487   -0.3302   -4.4330 H         1 <0>         0.0831
     49 H15         4.1272   -1.2715   -5.9417 H         1 <0>         0.0793
     50 H16         5.8838    0.9280   -6.1725 H         1 <0>         0.4028
     51 H17         9.7501    0.0475   -3.9423 H         1 <0>         0.0896
     52 H18         8.3347   -0.8163   -3.2662 H         1 <0>         0.1017
     53 H19        10.8197   -1.2092   -6.1000 H         1 <0>         0.0871
     54 H20         9.9474   -2.7133   -6.5289 H         1 <0>         0.0878
     55 H21         8.4173    0.7644   -7.8713 H         1 <0>         0.0992
     56 H22        10.0263    0.6950   -7.1119 H         1 <0>         0.1232
     57 H23        10.1369    0.1088   -9.5267 H         1 <0>         0.1413
     58 H24        10.6070   -1.2680   -8.5018 H         1 <0>         0.1321
     59 H25         7.9325   -0.8446   -9.6306 H         1 <0>         0.4286
     60 H26         7.5487   -3.1166   -8.9455 H         1 <0>         0.1391
     61 H27         9.1526   -3.0805   -8.1751 H         1 <0>         0.1327
     62 H28         7.3783   -2.6046   -6.5173 H         1 <0>         0.1242
     63 H29         6.8081   -1.2409   -7.5100 H         1 <0>         0.0961
     64 H30        11.8643   -3.1325   -5.6426 H         1 <0>         0.1887
     65 H31         8.4006   -5.3599   -2.6846 H         1 <0>         0.1349
     66 H32         8.0599   -7.7522   -2.3494 H         1 <0>         0.1341
     67 H33         9.4666   -9.4049   -3.5080 H         1 <0>         0.1402
     68 H34        11.2449   -8.6440   -5.0401 H         1 <0>         0.1367
     69 H35         9.0659   -1.8655  -10.2494 H         1 <0>         0.4346
@<TRIPOS>BOND
     1    1    2 1
     2    1   36 1
     3    1   37 1
     4    1   38 1
     5    2    3 1
     6    2    4 1
     7    2    5 1
     8    3   39 1
     9    3   40 1
    10    3   41 1
    11    4   42 1
    12    4   43 1
    13    4   44 1
    14    5    6 1
    15    6    7 2
    16    6    8 am
    17    8    9 1
    18    8   45 1
    19    9   10 1
    20    9   46 1
    21    9   47 1
    22   10   11 1
    23   10   48 1
    24   10   49 1
    25   11   12 am
    26   11   50 1
    27   12   13 2
    28   12   14 1
    29   14   15 1
    30   14   19 1
    31   14   16 1
    32   16   17 1
    33   16   51 1
    34   16   52 1
    35   17   18 1
    36   17   25 am
    37   18   19 1
    38   18   53 1
    39   18   54 1
    40   19   24 1
    41   19   20 1
    42   20   21 1
    43   20   55 1
    44   20   56 1
    45   21   22 1
    46   21   57 1
    47   21   58 1
    48   22   23 1
    49   22   59 1
    50   22   69 1
    51   23   24 1
    52   23   60 1
    53   23   61 1
    54   24   62 1
    55   24   63 1
    56   25   26 2
    57   25   27 1
    58   27   31 1
    59   27   28 2
    60   28   29 1
    61   28   64 1
    62   29   30 1
    63   30   35 ar
    64   30   31 ar
    65   31   32 ar
    66   32   33 ar
    67   32   65 1
    68   33   34 ar
    69   33   66 1
    70   34   35 ar
    71   34   67 1
    72   35   68 1
@<TRIPOS>MOLECULE
ZINC39695710
   65    69     0     0     0
SMALL
USER_CHARGES

@<TRIPOS>ATOM
      1 C1          5.8627   -1.6425    7.5537 C.3       1 <0>        -0.1188
      2 C2          5.3457   -2.4624    6.3998 C.ar      1 <0>        -0.0549
      3 C3          6.1940   -2.7874    5.3507 C.ar      1 <0>        -0.1212
      4 C4          5.7447   -3.5296    4.2956 C.ar      1 <0>        -0.0608
      5 C5          4.4183   -3.9688    4.2679 C.ar      1 <0>         0.0389
      6 C6          3.5592   -3.6404    5.3301 C.ar      1 <0>         0.0595
      7 C7          4.0349   -2.8892    6.3963 C.ar      1 <0>        -0.1168
      8 N1          2.3381   -4.2056    5.0212 N.pl3     1 <0>        -0.5905
      9 C8          2.4766   -4.8398    3.8257 C.2       1 <0>         0.2630
     10 N2          3.6929   -4.7017    3.3846 N.2       1 <0>        -0.4850
     11 C9          1.3811   -5.5929    3.1159 C.3       1 <0>         0.2285
     12 H1          0.7427   -6.0836    3.8506 H         1 <0>         0.1105
     13 C10         0.5459   -4.6161    2.2858 C.3       1 <0>        -0.1654
     14 N3          1.9741   -6.6008    2.2334 N.am      1 <0>        -0.7118
     15 C11         1.2678   -7.6967    1.8918 C.2       1 <0>         0.5252
     16 O1          0.1414   -7.8484    2.3150 O.2       1 <0>        -0.5200
     17 C12         1.8777   -8.7335    0.9840 C.3       1 <0>        -0.1116
     18 H2          2.5975   -8.2699    0.3094 H         1 <0>         0.1161
     19 C13         0.7760   -9.4588    0.1792 C.3       1 <0>         0.1109
     20 N4          1.2326  -10.8667    0.1044 N.am      1 <0>        -0.6139
     21 C14         1.8118  -11.1379    1.4420 C.3       1 <0>         0.1090
     22 C15         2.5545   -9.8387    1.8120 C.3       1 <0>        -0.0712
     23 C16         2.4020   -9.5507    3.3025 C.3       1 <0>        -0.1482
     24 C17         3.1329  -10.6316    4.1040 C.3       1 <0>        -0.0071
     25 N5          4.5524  -10.6448    3.7304 N.4       1 <0>        -0.5048
     26 C18         4.6946  -11.0140    2.3168 C.3       1 <0>        -0.0107
     27 C19         4.0299   -9.9493    1.4397 C.3       1 <0>        -0.1359
     28 C20         1.1421  -11.7099   -0.9430 C.2       1 <0>         0.5995
     29 O2          1.5662  -12.8454   -0.8478 O.2       1 <0>        -0.5066
     30 C21         0.5283  -11.2551   -2.2053 C.ar      1 <0>        -0.2074
     31 C22         1.3185  -10.6723   -3.2019 C.ar      1 <0>         0.1610
     32 C23         0.7353  -10.2495   -4.3815 C.ar      1 <0>        -0.1606
     33 C24        -0.6253  -10.4007   -4.5780 C.ar      1 <0>        -0.0359
     34 C25        -1.4140  -10.9754   -3.5980 C.ar      1 <0>        -0.1591
     35 C26        -0.8463  -11.4095   -2.4148 C.ar      1 <0>         0.1653
     36 F1         -1.6176  -11.9757   -1.4610 F         1 <0>        -0.1192
     37 F2          2.6476  -10.5228   -3.0115 F         1 <0>        -0.1234
     38 H3          6.2664   -2.3058    8.3186 H         1 <0>         0.0758
     39 H4          6.6481   -0.9739    7.2013 H         1 <0>         0.0739
     40 H5          5.0476   -1.0548    7.9758 H         1 <0>         0.0700
     41 H6          7.2197   -2.4498    5.3684 H         1 <0>         0.1338
     42 H7          6.4132   -3.7763    3.4840 H         1 <0>         0.1309
     43 H8          3.3801   -2.6370    7.2172 H         1 <0>         0.1265
     44 H9         -0.2465   -5.1608    1.7724 H         1 <0>         0.0799
     45 H10         0.1047   -3.8662    2.9424 H         1 <0>         0.0730
     46 H11         1.1843   -4.1254    1.5511 H         1 <0>         0.0713
     47 H12         2.8750   -6.4794    1.8950 H         1 <0>         0.4148
     48 H13        -0.1791   -9.3962    0.7006 H         1 <0>         0.1049
     49 H14         0.6928   -9.0327   -0.8206 H         1 <0>         0.0921
     50 H15         1.0218  -11.3445    2.1639 H         1 <0>         0.0893
     51 H16         2.5103  -11.9732    1.3917 H         1 <0>         0.0919
     52 H17         2.8320   -8.5754    3.5305 H         1 <0>         0.0979
     53 H18         1.3447   -9.5538    3.5674 H         1 <0>         0.1265
     54 H19         3.0397  -10.4192    5.1690 H         1 <0>         0.1384
     55 H20         2.6916  -11.6046    3.8881 H         1 <0>         0.1340
     56 H21         4.9463   -9.7277    3.8784 H         1 <0>         0.4284
     57 H22         5.7527  -11.0836    2.0644 H         1 <0>         0.1409
     58 H23         4.2161  -11.9779    2.1434 H         1 <0>         0.1341
     59 H24         4.1203  -10.2333    0.3913 H         1 <0>         0.1195
     60 H25         4.5187   -8.9884    1.6004 H         1 <0>         0.0998
     61 H26         1.3439   -9.7993   -5.1519 H         1 <0>         0.1544
     62 H27        -1.0746  -10.0679   -5.5020 H         1 <0>         0.1555
     63 H28        -2.4757  -11.0895   -3.7595 H         1 <0>         0.1554
     64 H29         5.0433  -11.3152    4.3028 H         1 <0>         0.4342
     65 H30         1.5311   -4.1594    5.5574 H         1 <0>         0.4261
@<TRIPOS>BOND
     1    1    2 1
     2    1   38 1
     3    1   39 1
     4    1   40 1
     5    2    7 ar
     6    2    3 ar
     7    3    4 ar
     8    3   41 1
     9    4    5 ar
    10    4   42 1
    11    5   10 1
    12    5    6 ar
    13    6    7 ar
    14    6    8 1
    15    7   43 1
    16    8    9 1
    17    8   65 1
    18    9   10 2
    19    9   11 1
    20   11   12 1
    21   11   13 1
    22   11   14 1
    23   13   44 1
    24   13   45 1
    25   13   46 1
    26   14   15 am
    27   14   47 1
    28   15   16 2
    29   15   17 1
    30   17   18 1
    31   17   22 1
    32   17   19 1
    33   19   20 1
    34   19   48 1
    35   19   49 1
    36   20   21 1
    37   20   28 am
    38   21   22 1
    39   21   50 1
    40   21   51 1
    41   22   27 1
    42   22   23 1
    43   23   24 1
    44   23   52 1
    45   23   53 1
    46   24   25 1
    47   24   54 1
    48   24   55 1
    49   25   26 1
    50   25   56 1
    51   25   64 1
    52   26   27 1
    53   26   57 1
    54   26   58 1
    55   27   59 1
    56   27   60 1
    57   28   29 2
    58   28   30 1
    59   30   35 ar
    60   30   31 ar
    61   31   32 ar
    62   31   37 1
    63   32   33 ar
    64   32   61 1
    65   33   34 ar
    66   33   62 1
    67   34   35 ar
    68   34   63 1
    69   35   36 1
@<TRIPOS>MOLECULE
ZINC63303048
   57    60     0     0     0
SMALL
USER_CHARGES

@<TRIPOS>ATOM
      1 C1         -0.0160    1.4056    0.0159 C.ar      1 <0>         0.0562
      2 C2          1.1111    2.1477    0.0124 C.ar      1 <0>        -0.1886
      3 C3          2.3869    1.5216   -0.0057 C.ar      1 <0>         0.3349
      4 N1          3.6032    2.0180    0.0074 N.pl3     1 <0>        -0.5729
      5 C4          4.5559    0.9158   -0.1003 C.3       1 <0>         0.0725
      6 H1          5.0906    0.9627   -1.0490 H         1 <0>         0.1827
      7 C5          5.5419    0.8958    1.0734 C.3       1 <0>         0.1392
      8 N2          6.1760   -0.4314    1.1078 N.am      1 <0>        -0.6344
      9 C6          5.3654   -1.6422    1.2764 C.3       1 <0>         0.1089
     10 C7          4.3288   -1.7233    0.1407 C.3       1 <0>        -0.1067
     11 C8          3.7187   -0.3498   -0.0191 C.2       1 <0>         0.0807
     12 C9          2.4357    0.0386   -0.0132 C.ar      1 <0>        -0.1605
     13 C10         1.1624   -0.6930   -0.0112 C.ar      1 <0>        -0.0014
     14 C11         0.0025    0.0029    0.0025 C.ar      1 <0>        -0.0778
     15 Cl1        -1.5025   -0.8624    0.0044 Cl        1 <0>        -0.0136
     16 C12         7.5139   -0.5356    0.9827 C.2       1 <0>         0.7095
     17 O1          8.1813    0.4530    0.7472 O.2       1 <0>        -0.5624
     18 N3          8.1119   -1.7357    1.1187 N.am      1 <0>        -0.7379
     19 C13         9.5735   -1.8330    1.0922 C.3       1 <0>         0.1477
     20 C14         9.9905   -3.2948    1.2661 C.3       1 <0>        -0.1550
     21 C15        11.4940   -3.3948    1.2388 C.2       1 <0>         0.5211
     22 O2         12.1657   -2.3954    1.0945 O.2       1 <0>        -0.5311
     23 N4         12.0920   -4.5950    1.3748 N.am      1 <0>        -0.6122
     24 C16        11.2916   -5.8153    1.5444 C.3       1 <0>         0.1053
     25 C17        11.7187   -6.8362    0.4851 C.3       1 <0>        -0.1173
     26 C18        13.2301   -7.0582    0.5764 C.3       1 <0>        -0.1101
     27 C19        13.9585   -5.7411    0.2992 C.3       1 <0>        -0.1271
     28 C20        13.5567   -4.7085    1.3502 C.3       1 <0>         0.1117
     29 C21        13.6488   -8.0874   -0.4417 C.2       1 <0>         0.5209
     30 O3         12.8203   -8.5934   -1.1685 O.2       1 <0>        -0.5411
     31 N5         14.9441   -8.4455   -0.5445 N.am      1 <0>        -0.8543
     32 H2         -0.9700    1.9115    0.0342 H         1 <0>         0.1715
     33 H3          1.0432    3.2255    0.0232 H         1 <0>         0.1717
     34 H4          6.3018    1.6640    0.9300 H         1 <0>         0.1353
     35 H5          5.0080    1.0738    2.0068 H         1 <0>         0.0980
     36 H6          6.0110   -2.5198    1.2431 H         1 <0>         0.1107
     37 H7          4.8509   -1.6047    2.2366 H         1 <0>         0.0952
     38 H8          4.8183   -2.0062   -0.7912 H         1 <0>         0.1289
     39 H9          3.5560   -2.4495    0.3925 H         1 <0>         0.1269
     40 H10         1.1521   -1.7729   -0.0213 H         1 <0>         0.1713
     41 H11         7.5747   -2.5351    1.2341 H         1 <0>         0.3968
     42 H12         9.9452   -1.4602    0.1377 H         1 <0>         0.0832
     43 H13         9.9921   -1.2368    1.9030 H         1 <0>         0.0825
     44 H14         9.6189   -3.6676    2.2205 H         1 <0>         0.1033
     45 H15         9.5720   -3.8910    0.4553 H         1 <0>         0.1032
     46 H16        11.4609   -6.2281    2.5389 H         1 <0>         0.0772
     47 H17        10.2348   -5.5794    1.4194 H         1 <0>         0.0891
     48 H18        11.2012   -7.7796    0.6595 H         1 <0>         0.0882
     49 H19        11.4655   -6.4597   -0.5060 H         1 <0>         0.0768
     50 H20        13.4856   -7.4111    1.5755 H         1 <0>         0.1035
     51 H21        15.0353   -5.9050    0.3413 H         1 <0>         0.0844
     52 H22        13.6842   -5.3749   -0.6902 H         1 <0>         0.0752
     53 H23        13.9939   -3.7426    1.0973 H         1 <0>         0.1004
     54 H24        13.9148   -5.0290    2.3286 H         1 <0>         0.0747
     55 H25        15.6068   -8.0408    0.0368 H         1 <0>         0.4024
     56 H26        15.2136   -9.1080   -1.1998 H         1 <0>         0.4045
     57 H27         3.8305    2.9585    0.0764 H         1 <0>         0.4582
@<TRIPOS>BOND
     1    1   14 ar
     2    1    2 ar
     3    1   32 1
     4    2    3 ar
     5    2   33 1
     6    3   12 ar
     7    3    4 2
     8    4    5 1
     9    4   57 1
    10    5    6 1
    11    5   11 1
    12    5    7 1
    13    7    8 1
    14    7   34 1
    15    7   35 1
    16    8    9 1
    17    8   16 am
    18    9   10 1
    19    9   36 1
    20    9   37 1
    21   10   11 1
    22   10   38 1
    23   10   39 1
    24   11   12 2
    25   12   13 ar
    26   13   14 ar
    27   13   40 1
    28   14   15 1
    29   16   17 2
    30   16   18 am
    31   18   19 1
    32   18   41 1
    33   19   20 1
    34   19   42 1
    35   19   43 1
    36   20   21 1
    37   20   44 1
    38   20   45 1
    39   21   22 2
    40   21   23 am
    41   23   28 1
    42   23   24 1
    43   24   25 1
    44   24   46 1
    45   24   47 1
    46   25   26 1
    47   25   48 1
    48   25   49 1
    49   26   27 1
    50   26   29 1
    51   26   50 1
    52   27   28 1
    53   27   51 1
    54   27   52 1
    55   28   53 1
    56   28   54 1
    57   29   30 2
    58   29   31 am
    59   31   55 1
    60   31   56 1
@<TRIPOS>MOLECULE
ZINC08921641
   58    62     0     0     0
SMALL
USER_CHARGES
ethyl [3-[3-(2-furyl)prop-2-enoyloxy]phenyl]-hydroxy-BLAHcarboxylate
@<TRIPOS>ATOM
      1 C1         -6.4922    9.3817   -3.3801 C.3       1 <0>        -0.1537
      2 C2         -5.9258    9.3482   -1.9592 C.3       1 <0>         0.0818
      3 O1         -4.7304    8.5244   -1.9339 O.3       1 <0>        -0.3696
      4 C3         -4.1053    8.3904   -0.7490 C.2       1 <0>         0.6577
      5 O2         -4.5467    8.9465    0.2371 O.2       1 <0>        -0.5673
      6 N1         -2.9901    7.6393   -0.6566 N.am      1 <0>        -0.5933
      7 C4         -2.2851    7.4732    0.6236 C.3       1 <0>         0.1271
      8 C5         -2.3439    6.0069    1.0548 C.3       1 <0>        -0.0741
      9 C6         -1.9559    5.1205   -0.1226 C.2       1 <0>        -0.0173
     10 C7         -2.0133    5.5816   -1.3936 C.2       1 <0>        -0.2432
     11 S1         -1.4901    4.2195   -2.4009 S.3       1 <0>         0.1772
     12 C8         -1.1983    3.0727   -1.1654 C.2       1 <0>         0.1363
     13 C9         -1.5117    3.7447    0.0229 C.2       1 <0>        -0.2491
     14 C10        -1.3625    2.9863    1.2919 C.2       1 <0>         0.4656
     15 N2         -0.7320    1.8450    1.2441 N.2       1 <0>        -0.6422
     16 C11        -0.1042    1.2911    0.0513 C.3       1 <0>         0.3995
     17 H1         -0.1684    0.2036    0.0879 H         1 <0>         0.1240
     18 N3         -0.7601    1.7708   -1.1796 N.pl3     1 <0>        -0.6998
     19 C12         1.3468    1.6971    0.0256 C.ar      1 <0>        -0.1067
     20 C13         2.0035    1.8381   -1.1832 C.ar      1 <0>        -0.0997
     21 C14         3.3331    2.2159   -1.2104 C.ar      1 <0>        -0.1048
     22 C15         4.0123    2.4428   -0.0288 C.ar      1 <0>        -0.1119
     23 C16         3.3574    2.2966    1.1854 C.ar      1 <0>         0.0864
     24 C17         2.0213    1.9227    1.2097 C.ar      1 <0>        -0.0914
     25 O3          4.0234    2.5187    2.3490 O.3       1 <0>        -0.2933
     26 C18         4.2861    1.4577    3.1414 C.2       1 <0>         0.5029
     27 O4          4.0228    0.3325    2.7590 O.2       1 <0>        -0.4952
     28 C19         4.8665    1.6533    4.4145 C.2       1 <0>        -0.2053
     29 C20         5.1307    0.5864    5.2113 C.2       1 <0>         0.0439
     30 C21         5.7121    0.7824    6.4866 C.2       1 <0>        -0.0300
     31 C22         6.0272   -0.2055    7.3973 C.2       1 <0>        -0.1422
     32 C23         6.5807    0.4414    8.5122 C.2       1 <0>        -0.2222
     33 C24         6.5744    1.7674    8.2492 C.2       1 <0>        -0.0028
     34 O5          6.0521    1.9691    7.0318 O.3       1 <0>        -0.1628
     35 O6         -1.8638    3.4619    2.4553 O.3       1 <0>        -0.4524
     36 C25        -2.4294    6.9512   -1.8363 C.3       1 <0>         0.2087
     37 H2         -7.3895   10.0001   -3.3990 H         1 <0>         0.0833
     38 H3         -5.7482    9.8002   -4.0580 H         1 <0>         0.0673
     39 H4         -6.7422    8.3688   -3.6956 H         1 <0>         0.0669
     40 H5         -6.6698    8.9298   -1.2813 H         1 <0>         0.0711
     41 H6         -5.6757   10.3611   -1.6437 H         1 <0>         0.0717
     42 H7         -1.2445    7.7759    0.5069 H         1 <0>         0.0813
     43 H8         -2.7607    8.0939    1.3830 H         1 <0>         0.1047
     44 H9         -3.3562    5.7623    1.3764 H         1 <0>         0.0873
     45 H10        -1.6497    5.8419    1.8788 H         1 <0>         0.0982
     46 H11        -0.8751    1.1997   -1.9551 H         1 <0>         0.4186
     47 H12         1.4757    1.6566   -2.1078 H         1 <0>         0.1250
     48 H13         3.8426    2.3293   -2.1559 H         1 <0>         0.1343
     49 H14         5.0523    2.7333   -0.0504 H         1 <0>         0.1331
     50 H15         1.5093    1.8079    2.1536 H         1 <0>         0.1350
     51 H16         5.1000    2.6517    4.7538 H         1 <0>         0.1457
     52 H17         4.8971   -0.4120    4.8720 H         1 <0>         0.1639
     53 H18         5.8786   -1.2682    7.2748 H         1 <0>         0.1605
     54 H19         6.9408   -0.0313    9.4140 H         1 <0>         0.1579
     55 H20         6.9330    2.5398    8.9134 H         1 <0>         0.2111
     56 H21        -1.7078    2.8853    3.2157 H         1 <0>         0.4080
     57 H22        -1.5644    7.4994   -2.2095 H         1 <0>         0.0896
     58 H23        -3.1867    6.8751   -2.6165 H         1 <0>         0.1047
@<TRIPOS>BOND
     1    1    2 1
     2    1   37 1
     3    1   38 1
     4    1   39 1
     5    2    3 1
     6    2   40 1
     7    2   41 1
     8    3    4 1
     9    4    5 2
    10    4    6 am
    11    6   36 1
    12    6    7 1
    13    7    8 1
    14    7   42 1
    15    7   43 1
    16    8    9 1
    17    8   44 1
    18    8   45 1
    19    9   13 1
    20    9   10 2
    21   10   11 1
    22   10   36 1
    23   11   12 1
    24   12   18 1
    25   12   13 2
    26   13   14 1
    27   14   15 2
    28   14   35 1
    29   15   16 1
    30   16   17 1
    31   16   18 1
    32   16   19 1
    33   18   46 1
    34   19   24 ar
    35   19   20 ar
    36   20   21 ar
    37   20   47 1
    38   21   22 ar
    39   21   48 1
    40   22   23 ar
    41   22   49 1
    42   23   24 ar
    43   23   25 1
    44   24   50 1
    45   25   26 1
    46   26   27 2
    47   26   28 1
    48   28   29 2
    49   28   51 1
    50   29   30 1
    51   29   52 1
    52   30   34 1
    53   30   31 2
    54   31   32 1
    55   31   53 1
    56   32   33 2
    57   32   54 1
    58   33   34 1
    59   33   55 1
    60   35   56 1
    61   36   57 1
    62   36   58 1
@<TRIPOS>MOLECULE
ZINC09561978
   61    64     0     0     0
SMALL
USER_CHARGES
[3-cyano-3-(1,3-dihydrobenzoimidazol-2-ylidene)-2-oxo-propyl] 4-[(3,5-dimethyl-1-piperidyl)sulfonyl]benzoate
@<TRIPOS>ATOM
      1 C1         -2.1981    1.0926   -1.2045 C.3       1 <0>        -0.1562
      2 C2         -0.7523    1.5925   -1.2323 C.3       1 <0>        -0.1074
      3 H1         -0.2558    1.2215   -2.1289 H         1 <0>         0.0851
      4 C3         -0.0127    1.0858    0.0080 C.3       1 <0>        -0.1074
      5 C4         -0.7285    1.5791    1.2676 C.3       1 <0>        -0.1109
      6 H2         -1.7587    1.2231    1.2636 H         1 <0>         0.0790
      7 C5         -0.7166    3.1108    1.2900 C.3       1 <0>         0.1230
      8 N1         -1.2958    3.6064    0.0339 N.pl3     1 <0>        -0.9919
      9 C6         -0.7411    3.1244   -1.2383 C.3       1 <0>         0.1227
     10 S1         -2.5495    4.6881    0.0519 S.o2      1 <0>         2.6863
     11 O1         -2.4853    5.3636    1.3004 O.2       1 <0>        -0.9487
     12 O2         -2.5090    5.3774   -1.1901 O.2       1 <0>        -0.9480
     13 C7         -4.0435    3.7540    0.0610 C.ar      1 <0>        -0.6483
     14 C8         -4.6419    3.4004   -1.1355 C.ar      1 <0>        -0.0303
     15 C9         -5.8090    2.6650   -1.1357 C.ar      1 <0>        -0.0792
     16 C10        -6.3921    2.2866    0.0753 C.ar      1 <0>        -0.0678
     17 C11        -5.7857    2.6513    1.2790 C.ar      1 <0>        -0.0744
     18 C12        -4.6159    3.3823    1.2646 C.ar      1 <0>        -0.0306
     19 C13        -7.6446    1.5034    0.0829 C.2       1 <0>         0.5036
     20 O3         -8.1493    1.1753    1.1380 O.2       1 <0>        -0.4921
     21 O4         -8.2271    1.1531   -1.0802 O.3       1 <0>        -0.3285
     22 C14        -9.4558    0.3840   -0.9967 C.3       1 <0>         0.0439
     23 C15        -9.9577    0.0867   -2.3862 C.2       1 <0>         0.4361
     24 O5         -9.3393    0.4849   -3.3540 O.2       1 <0>        -0.5031
     25 C16       -11.1406   -0.6507   -2.5631 C.2       1 <0>        -0.3545
     26 C17       -11.6091   -0.9281   -3.8599 C.2       1 <0>         0.5374
     27 N2        -11.0107   -0.5333   -5.0135 N.pl3     1 <0>        -0.5738
     28 C18       -11.7690   -1.0016   -6.0804 C.ar      1 <0>         0.0791
     29 C19       -11.6317   -0.8994   -7.4579 C.ar      1 <0>        -0.0937
     30 C20       -12.5716   -1.4772   -8.2872 C.ar      1 <0>        -0.0972
     31 C21       -13.6516   -2.1587   -7.7513 C.ar      1 <0>        -0.0979
     32 C22       -13.7976   -2.2663   -6.3830 C.ar      1 <0>        -0.0961
     33 C23       -12.8581   -1.6889   -5.5399 C.ar      1 <0>         0.0768
     34 N3        -12.7344   -1.6281   -4.1566 N.pl3     1 <0>        -0.5977
     35 C24       -11.8691   -1.1198   -1.4230 C.1       1 <0>         0.2704
     36 N4        -12.4471   -1.4919   -0.5186 N.1       1 <0>        -0.4420
     37 C25        -0.0076    1.0449    2.5069 C.3       1 <0>        -0.1485
     38 H3         -2.6942    1.4652   -0.3083 H         1 <0>         0.0592
     39 H4         -2.7245    1.4537   -2.0880 H         1 <0>         0.0557
     40 H5         -2.2056    0.0026   -1.1973 H         1 <0>         0.0582
     41 H6          0.0021   -0.0041    0.0020 H         1 <0>         0.0663
     42 H7          1.0100    1.4629    0.0003 H         1 <0>         0.0666
     43 H8          0.3091    3.4671    1.3851 H         1 <0>         0.0790
     44 H9         -1.3080    3.4706    2.1320 H         1 <0>         0.0910
     45 H10         0.2826    3.4818   -1.3494 H         1 <0>         0.0791
     46 H11        -1.3500    3.4910   -2.0647 H         1 <0>         0.0919
     47 H12        -4.1920    3.6973   -2.0713 H         1 <0>         0.1491
     48 H13        -6.2726    2.3859   -2.0703 H         1 <0>         0.1529
     49 H14        -6.2313    2.3615    2.2191 H         1 <0>         0.1491
     50 H15        -4.1457    3.6648    2.1949 H         1 <0>         0.1500
     51 H16        -9.2796   -0.4745   -0.5152 H         1 <0>         0.0899
     52 H17       -10.2072    0.9574   -0.4538 H         1 <0>         0.1024
     53 H18       -10.1933   -0.0154   -5.0813 H         1 <0>         0.4571
     54 H19       -10.7908   -0.3691   -7.8799 H         1 <0>         0.1407
     55 H20       -12.4643   -1.3977   -9.3589 H         1 <0>         0.1425
     56 H21       -14.3826   -2.6084   -8.4069 H         1 <0>         0.1420
     57 H22       -14.6411   -2.7989   -5.9691 H         1 <0>         0.1383
     58 H23       -13.3468   -2.0186   -3.5136 H         1 <0>         0.4459
     59 H24         1.0220    1.4026    2.5107 H         1 <0>         0.0583
     60 H25        -0.5178    1.3965    3.4037 H         1 <0>         0.0584
     61 H26        -0.0136   -0.0450    2.4891 H         1 <0>         0.0592
@<TRIPOS>BOND
     1    1    2 1
     2    1   38 1
     3    1   39 1
     4    1   40 1
     5    2    3 1
     6    2    9 1
     7    2    4 1
     8    4    5 1
     9    4   41 1
    10    4   42 1
    11    5    6 1
    12    5    7 1
    13    5   37 1
    14    7    8 1
    15    7   43 1
    16    7   44 1
    17    8    9 1
    18    8   10 1
    19    9   45 1
    20    9   46 1
    21   10   11 2
    22   10   12 2
    23   10   13 1
    24   13   18 ar
    25   13   14 ar
    26   14   15 ar
    27   14   47 1
    28   15   16 ar
    29   15   48 1
    30   16   17 ar
    31   16   19 1
    32   17   18 ar
    33   17   49 1
    34   18   50 1
    35   19   20 2
    36   19   21 1
    37   21   22 1
    38   22   23 1
    39   22   51 1
    40   22   52 1
    41   23   24 2
    42   23   25 1
    43   25   26 2
    44   25   35 1
    45   26   34 1
    46   26   27 1
    47   27   28 1
    48   27   53 1
    49   28   33 ar
    50   28   29 ar
    51   29   30 ar
    52   29   54 1
    53   30   31 ar
    54   30   55 1
    55   31   32 ar
    56   31   56 1
    57   32   33 ar
    58   32   57 1
    59   33   34 1
    60   34   58 1
    61   35   36 3
    62   37   59 1
    63   37   60 1
    64   37   61 1
@<TRIPOS>MOLECULE
ZINC12899256
   66    70     0     0     0
SMALL
USER_CHARGES
2-[(4R)-4-methyl-2,5-dioxo-4-phenethyl-imidazolidin-1-yl]-N-[3-(6,7,8,9-tetrahydro-5H-[1,2,4]triazolo[4,5-a]azepin-3-yl)phenyl]acetamide
@<TRIPOS>ATOM
      1 C1         -7.3718    8.8673    1.6612 C.3       1 <0>        -0.1531
      2 C2         -6.1301    9.6901    1.3115 C.3       1 <0>         0.1260
      3 C3         -4.8738    8.9881    1.7876 C.2       1 <0>         0.5375
      4 O1         -4.5807    8.7059    2.9296 O.2       1 <0>        -0.4575
      5 N1         -4.1509    8.7421    0.6771 N.am      1 <0>        -0.5632
      6 C4         -4.7671    9.1909   -0.4224 C.2       1 <0>         0.7098
      7 O2         -4.3087    9.0882   -1.5433 O.2       1 <0>        -0.5366
      8 N2         -5.9525    9.7652   -0.1489 N.am      1 <0>        -0.7151
      9 C5         -2.8483    8.0717    0.6748 C.3       1 <0>         0.1021
     10 C6         -3.0487    6.5850    0.5312 C.2       1 <0>         0.4986
     11 O3         -4.1694    6.1302    0.4397 O.2       1 <0>        -0.4940
     12 N3         -1.9827    5.7608    0.5044 N.am      1 <0>        -0.6707
     13 C7         -2.1603    4.3949    0.2566 C.ar      1 <0>         0.1513
     14 C8         -1.3428    3.4626    0.8846 C.ar      1 <0>        -0.1290
     15 C9         -1.5147    2.1127    0.6433 C.ar      1 <0>        -0.0938
     16 C10        -2.5028    1.6814   -0.2187 C.ar      1 <0>        -0.1297
     17 C11        -3.3250    2.6099   -0.8581 C.ar      1 <0>         0.0057
     18 C12        -3.1517    3.9718   -0.6148 C.ar      1 <0>        -0.0764
     19 C13        -4.3813    2.1504   -1.7865 C.2       1 <0>         0.2115
     20 N4         -5.4414    2.8309   -2.1677 N.2       1 <0>        -0.2696
     21 N5         -6.1442    2.1219   -2.9801 N.2       1 <0>        -0.2892
     22 C14        -5.5761    0.9631   -3.1644 C.2       1 <0>         0.1871
     23 N6         -4.4472    0.9373   -2.4078 N.pl3     1 <0>        -0.4665
     24 C15        -3.5077   -0.1769   -2.2821 C.3       1 <0>         0.0970
     25 C16        -3.5344   -1.0096   -3.5671 C.3       1 <0>        -0.1418
     26 C17        -4.6022   -2.0966   -3.4550 C.3       1 <0>        -0.1254
     27 C18        -5.9843   -1.4749   -3.2803 C.3       1 <0>        -0.1247
     28 C19        -6.0560   -0.1549   -4.0538 C.3       1 <0>        -0.0371
     29 C20        -6.2265   11.0913    1.9182 C.3       1 <0>        -0.1077
     30 C21        -7.5016   11.7755    1.4215 C.3       1 <0>        -0.0801
     31 C22        -7.5965   13.1558    2.0190 C.ar      1 <0>        -0.0853
     32 C23        -8.2476   13.3441    3.2238 C.ar      1 <0>        -0.1153
     33 C24        -8.3301   14.6094    3.7744 C.ar      1 <0>        -0.1177
     34 C25        -7.7709   15.6880    3.1150 C.ar      1 <0>        -0.1224
     35 C26        -7.1248   15.5005    1.9074 C.ar      1 <0>        -0.1180
     36 C27        -7.0374   14.2344    1.3595 C.ar      1 <0>        -0.1164
     37 H1         -7.4352    8.7469    2.7427 H         1 <0>         0.0852
     38 H2         -8.2622    9.3821    1.3002 H         1 <0>         0.0847
     39 H3         -7.3027    7.8870    1.1898 H         1 <0>         0.0740
     40 H4         -6.5683   10.1561   -0.7883 H         1 <0>         0.4411
     41 H5         -2.3309    8.2797    1.6114 H         1 <0>         0.1305
     42 H6         -2.2515    8.4402   -0.1595 H         1 <0>         0.1344
     43 H7         -1.0923    6.1143    0.6568 H         1 <0>         0.4156
     44 H8         -0.5706    3.7942    1.5629 H         1 <0>         0.1335
     45 H9         -0.8768    1.3927    1.1344 H         1 <0>         0.1360
     46 H10        -2.6369    0.6254   -0.4013 H         1 <0>         0.1282
     47 H11        -3.7876    4.6948   -1.1040 H         1 <0>         0.1470
     48 H12        -2.5021    0.2116   -2.1212 H         1 <0>         0.1019
     49 H13        -3.7961   -0.8023   -1.4373 H         1 <0>         0.0922
     50 H14        -2.5597   -1.4732   -3.7190 H         1 <0>         0.0910
     51 H15        -3.7638   -0.3620   -4.4133 H         1 <0>         0.0821
     52 H16        -4.3817   -2.7299   -2.5957 H         1 <0>         0.0708
     53 H17        -4.5931   -2.7040   -4.3601 H         1 <0>         0.0755
     54 H18        -6.1660   -1.2859   -2.2223 H         1 <0>         0.0651
     55 H19        -6.7413   -2.1603   -3.6613 H         1 <0>         0.0832
     56 H20        -7.0861    0.0356   -4.3551 H         1 <0>         0.1027
     57 H21        -5.4223   -0.2144   -4.9386 H         1 <0>         0.0946
     58 H22        -6.2546   11.0156    3.0052 H         1 <0>         0.0935
     59 H23        -5.3585   11.6780    1.6172 H         1 <0>         0.0778
     60 H24        -7.4735   11.8513    0.3345 H         1 <0>         0.0753
     61 H25        -8.3696   11.1889    1.7224 H         1 <0>         0.0839
     62 H26        -8.6884   12.5021    3.7368 H         1 <0>         0.1229
     63 H27        -8.8346   14.7558    4.7180 H         1 <0>         0.1225
     64 H28        -7.8386   16.6770    3.5434 H         1 <0>         0.1214
     65 H29        -6.6879   16.3432    1.3922 H         1 <0>         0.1219
     66 H30        -6.5325   14.0879    0.4161 H         1 <0>         0.1209
@<TRIPOS>BOND
     1    1    2 1
     2    1   37 1
     3    1   38 1
     4    1   39 1
     5    2    8 1
     6    2    3 1
     7    2   29 1
     8    3    4 2
     9    3    5 am
    10    5    6 am
    11    5    9 1
    12    6    7 2
    13    6    8 am
    14    8   40 1
    15    9   10 1
    16    9   41 1
    17    9   42 1
    18   10   11 2
    19   10   12 am
    20   12   13 1
    21   12   43 1
    22   13   18 ar
    23   13   14 ar
    24   14   15 ar
    25   14   44 1
    26   15   16 ar
    27   15   45 1
    28   16   17 ar
    29   16   46 1
    30   17   18 ar
    31   17   19 1
    32   18   47 1
    33   19   23 1
    34   19   20 2
    35   20   21 1
    36   21   22 2
    37   22   28 1
    38   22   23 1
    39   23   24 1
    40   24   25 1
    41   24   48 1
    42   24   49 1
    43   25   26 1
    44   25   50 1
    45   25   51 1
    46   26   27 1
    47   26   52 1
    48   26   53 1
    49   27   28 1
    50   27   54 1
    51   27   55 1
    52   28   56 1
    53   28   57 1
    54   29   30 1
    55   29   58 1
    56   29   59 1
    57   30   31 1
    58   30   60 1
    59   30   61 1
    60   31   36 ar
    61   31   32 ar
    62   32   33 ar
    63   32   62 1
    64   33   34 ar
    65   33   63 1
    66   34   35 ar
    67   34   64 1
    68   35   36 ar
    69   35   65 1
    70   36   66 1
@<TRIPOS>MOLECULE
ZINC21029551
   54    57     0     0     0
SMALL
USER_CHARGES
N-(2,5-dimethylphenyl)-3-[[5-[[2-(2-oxo-1,3-benzoxazol-3-yl)acetyl]amino]-1,3,4-thiadiazol-2-yl]sulfanyl]propanamide
@<TRIPOS>ATOM
      1 C1         -6.3873   -6.1593    1.4937 C.3       1 <0>        -0.1175
      2 C2         -5.2892   -6.9457    0.8253 C.ar      1 <0>        -0.0689
      3 C3         -5.5500   -8.2087    0.3255 C.ar      1 <0>        -0.1358
      4 C4         -4.5450   -8.9338   -0.2875 C.ar      1 <0>        -0.0970
      5 C5         -3.2768   -8.3986   -0.4027 C.ar      1 <0>        -0.1253
      6 C6         -3.0119   -7.1307    0.0976 C.ar      1 <0>         0.1550
      7 C7         -4.0223   -6.4070    0.7176 C.ar      1 <0>        -0.1317
      8 N1         -1.7284   -6.5856   -0.0175 N.am      1 <0>        -0.6812
      9 C8         -1.5608   -5.2483   -0.0084 C.2       1 <0>         0.5200
     10 O1         -2.5277   -4.5161   -0.0015 O.2       1 <0>        -0.5118
     11 C9         -0.1722   -4.6629   -0.0069 C.3       1 <0>        -0.1276
     12 C10        -0.2626   -3.1356    0.0041 C.3       1 <0>        -0.1032
     13 S1          1.4090   -2.4310    0.0060 S.3       1 <0>         0.0536
     14 C11         1.1376   -0.6900    0.0187 C.2       1 <0>         0.0134
     15 N2          0.0037   -0.0046    0.0252 N.2       1 <0>        -0.2520
     16 N3         -0.0131    1.2565    0.0338 N.2       1 <0>        -0.2732
     17 C12         1.0992    1.9726    0.0369 C.2       1 <0>         0.2884
     18 S2          2.3154    0.6586    0.0260 S.3       1 <0>         0.0457
     19 N4          1.2742    3.3543    0.0457 N.am      1 <0>        -0.6235
     20 C13         0.2010    4.1695    0.0530 C.2       1 <0>         0.4901
     21 O2         -0.9173    3.6999    0.0520 O.2       1 <0>        -0.4494
     22 C14         0.3904    5.6645    0.0625 C.3       1 <0>         0.1226
     23 N5         -0.9185    6.3226    0.0692 N.am      1 <0>        -0.5357
     24 C15        -1.6549    6.7054   -1.0516 C.ar      1 <0>         0.0733
     25 C16        -1.4311    6.6083   -2.4160 C.ar      1 <0>        -0.0990
     26 C17        -2.3732    7.0920   -3.3028 C.ar      1 <0>        -0.0959
     27 C18        -3.5385    7.6721   -2.8324 C.ar      1 <0>        -0.1044
     28 C19        -3.7718    7.7655   -1.4742 C.ar      1 <0>        -0.0765
     29 C20        -2.8301    7.2870   -0.5766 C.ar      1 <0>         0.0399
     30 O3         -2.7772    7.2534    0.7775 O.3       1 <0>        -0.2306
     31 C21        -1.6284    6.6739    1.1597 C.2       1 <0>         0.6458
     32 O4         -1.2819    6.4937    2.3112 O.2       1 <0>        -0.4791
     33 C22        -2.1821   -9.1896   -1.0711 C.3       1 <0>        -0.1110
     34 H1         -7.3170   -6.7471    1.4844 H         1 <0>         0.0664
     35 H2         -6.5448   -5.2154    0.9512 H         1 <0>         0.0718
     36 H3         -6.1016   -5.9414    2.5334 H         1 <0>         0.0700
     37 H4         -6.5406   -8.6295    0.4147 H         1 <0>         0.1224
     38 H5         -4.7517   -9.9199   -0.6765 H         1 <0>         0.1254
     39 H6         -3.8182   -5.4225    1.1120 H         1 <0>         0.1442
     40 H7         -0.8561   -7.2485   -0.1154 H         1 <0>         0.4339
     41 H8          0.3688   -5.0046    0.8878 H         1 <0>         0.1128
     42 H9          0.3654   -4.9919   -0.9084 H         1 <0>         0.1117
     43 H10        -0.8036   -2.7939   -0.8907 H         1 <0>         0.1101
     44 H11        -0.8003   -2.8066    0.9056 H         1 <0>         0.1100
     45 H12         2.2884    3.7802    0.0467 H         1 <0>         0.4598
     46 H13         0.9525    5.9572    0.9616 H         1 <0>         0.1407
     47 H14         0.9493    5.9690   -0.8347 H         1 <0>         0.1368
     48 H15        -0.5224    6.1559   -2.7848 H         1 <0>         0.1327
     49 H16        -2.2002    7.0170   -4.3663 H         1 <0>         0.1414
     50 H17        -4.2717    8.0478   -3.5308 H         1 <0>         0.1447
     51 H18        -4.6817    8.2207   -1.1120 H         1 <0>         0.1441
     52 H19        -1.2515   -8.6031   -1.0676 H         1 <0>         0.0577
     53 H20        -2.4716   -9.4119   -2.1088 H         1 <0>         0.0733
     54 H21        -2.0242  -10.1312   -0.5248 H         1 <0>         0.0726
@<TRIPOS>BOND
     1    1    2 1
     2    1   34 1
     3    1   35 1
     4    1   36 1
     5    2    7 ar
     6    2    3 ar
     7    3    4 ar
     8    3   37 1
     9    4    5 ar
    10    4   38 1
    11    5    6 ar
    12    5   33 1
    13    6    7 ar
    14    6    8 1
    15    7   39 1
    16    8    9 am
    17    8   40 1
    18    9   10 2
    19    9   11 1
    20   11   12 1
    21   11   41 1
    22   11   42 1
    23   12   13 1
    24   12   43 1
    25   12   44 1
    26   13   14 1
    27   14   18 1
    28   14   15 2
    29   15   16 1
    30   16   17 2
    31   17   18 1
    32   17   19 1
    33   19   20 am
    34   19   45 1
    35   20   21 2
    36   20   22 1
    37   22   23 1
    38   22   46 1
    39   22   47 1
    40   23   31 am
    41   23   24 1
    42   24   29 ar
    43   24   25 ar
    44   25   26 ar
    45   25   48 1
    46   26   27 ar
    47   26   49 1
    48   27   28 ar
    49   27   50 1
    50   28   29 ar
    51   28   51 1
    52   29   30 1
    53   30   31 1
    54   31   32 2
    55   33   52 1
    56   33   53 1
    57   33   54 1
@<TRIPOS>MOLECULE
ZINC18084046
   58    61     0     0     0
SMALL
USER_CHARGES

@<TRIPOS>ATOM
      1 C1         -0.0569    1.5219    0.1207 C.3       1 <0>        -0.1771
      2 C2         -0.0321    0.0153    0.0929 C.2       1 <0>         0.5136
      3 O1          1.0280   -0.5733    0.0668 O.2       1 <0>        -0.5380
      4 N1         -1.1878   -0.6779    0.0971 N.am      1 <0>        -0.7273
      5 C3         -1.1637   -2.1425    0.0700 C.3       1 <0>         0.1854
      6 C4         -0.4160   -2.6630    1.2993 C.3       1 <0>        -0.1260
      7 C5         -0.3908   -4.1925    1.2710 C.3       1 <0>        -0.0791
      8 H1          0.1418   -4.5633    2.1468 H         1 <0>         0.0828
      9 C6          0.3206   -4.6675    0.0025 C.3       1 <0>        -0.1124
     10 C7         -0.4271   -4.1470   -1.2268 C.3       1 <0>        -0.0792
     11 H2          0.0797   -4.4854   -2.1305 H         1 <0>         0.0829
     12 C8         -0.4523   -2.6175   -1.1985 C.3       1 <0>        -0.1261
     13 C9         -1.8608   -4.6811   -1.2157 C.3       1 <0>        -0.1062
     14 C10        -2.5721   -4.2060    0.0529 C.3       1 <0>        -0.0311
     15 C11        -1.8245   -4.7265    1.2821 C.3       1 <0>        -0.1057
     16 C12        -2.5974   -2.6765    0.0811 C.3       1 <0>        -0.1007
     17 C13        -3.9843   -4.7321    0.0638 C.2       1 <0>         0.4760
     18 O2         -4.9154   -3.9625    0.0913 O.2       1 <0>        -0.4964
     19 O3         -4.2078   -6.0555    0.0430 O.3       1 <0>        -0.3247
     20 C14        -5.5711   -6.4835    0.0550 C.3       1 <0>         0.0490
     21 C15        -5.6251   -7.9893    0.0283 C.2       1 <0>         0.5246
     22 O4         -4.5972   -8.6326    0.0017 O.2       1 <0>        -0.4829
     23 N2         -6.8156   -8.6211    0.0341 N.am      1 <0>        -0.6652
     24 C16        -6.8688  -10.0142   -0.0852 C.ar      1 <0>         0.2531
     25 C17        -5.8803  -10.8005    0.4926 C.ar      1 <0>        -0.1267
     26 C18        -5.9357  -12.1751    0.3730 C.ar      1 <0>         0.0018
     27 C19        -6.9741  -12.7690   -0.3210 C.ar      1 <0>        -0.2006
     28 C20        -7.9594  -11.9892   -0.8977 C.ar      1 <0>         0.0171
     29 C21        -7.9131  -10.6139   -0.7764 C.ar      1 <0>        -0.0834
     30 N3         -8.9721   -9.7802   -1.3880 N.pl3     1 <0>         0.0426
     31 O5         -9.9310  -10.3044   -1.9053 O.2       1 <0>        -0.1310
     32 O6         -8.8784   -8.5749   -1.3703 O.3       1 <0>        -0.1710
     33 C22        -7.0314  -14.2695   -0.4495 C.3       1 <0>         0.5174
     34 F1         -5.9353  -14.8362    0.2098 F         1 <0>        -0.1692
     35 F2         -8.2164  -14.7418    0.1250 F         1 <0>        -0.1689
     36 F3         -6.9957  -14.6234   -1.8025 F         1 <0>        -0.1690
     37 H3          0.9645    1.9023    0.1128 H         1 <0>         0.0929
     38 H4         -0.5896    1.8927   -0.7550 H         1 <0>         0.0877
     39 H5         -0.5637    1.8603    1.0244 H         1 <0>         0.0876
     40 H6         -2.0357   -0.2072    0.1179 H         1 <0>         0.4012
     41 H7          0.6054   -2.2825    1.2914 H         1 <0>         0.0910
     42 H8         -0.9228   -2.3246    2.2030 H         1 <0>         0.0628
     43 H9          1.3420   -4.2871   -0.0054 H         1 <0>         0.0714
     44 H10         0.3386   -5.7572   -0.0176 H         1 <0>         0.0688
     45 H11        -0.9849   -2.2467   -2.0743 H         1 <0>         0.0629
     46 H12         0.5691   -2.2370   -1.2064 H         1 <0>         0.0910
     47 H13        -2.3934   -4.3102   -2.0914 H         1 <0>         0.0702
     48 H14        -1.8428   -5.7707   -1.2358 H         1 <0>         0.0835
     49 H15        -1.8065   -5.8162    1.2620 H         1 <0>         0.0835
     50 H16        -2.3313   -4.3881    2.1859 H         1 <0>         0.0700
     51 H17        -3.1042   -2.3381    0.9849 H         1 <0>         0.0800
     52 H18        -3.1300   -2.3057   -0.7946 H         1 <0>         0.0802
     53 H19        -6.0586   -6.1184    0.9589 H         1 <0>         0.1103
     54 H20        -6.0844   -6.0859   -0.8206 H         1 <0>         0.1134
     55 H21        -7.6355   -8.1101    0.1209 H         1 <0>         0.4310
     56 H22        -5.0690  -10.3372    1.0344 H         1 <0>         0.1758
     57 H23        -5.1671  -12.7870    0.8217 H         1 <0>         0.1655
     58 H24        -8.7686  -12.4560   -1.4396 H         1 <0>         0.1708
@<TRIPOS>BOND
     1    1    2 1
     2    1   37 1
     3    1   38 1
     4    1   39 1
     5    2    3 2
     6    2    4 am
     7    4    5 1
     8    4   40 1
     9    5   12 1
    10    5   16 1
    11    5    6 1
    12    6    7 1
    13    6   41 1
    14    6   42 1
    15    7    8 1
    16    7   15 1
    17    7    9 1
    18    9   10 1
    19    9   43 1
    20    9   44 1
    21   10   11 1
    22   10   12 1
    23   10   13 1
    24   12   45 1
    25   12   46 1
    26   13   14 1
    27   13   47 1
    28   13   48 1
    29   14   15 1
    30   14   16 1
    31   14   17 1
    32   15   49 1
    33   15   50 1
    34   16   51 1
    35   16   52 1
    36   17   18 2
    37   17   19 1
    38   19   20 1
    39   20   21 1
    40   20   53 1
    41   20   54 1
    42   21   22 2
    43   21   23 am
    44   23   24 1
    45   23   55 1
    46   24   29 ar
    47   24   25 ar
    48   25   26 ar
    49   25   56 1
    50   26   27 ar
    51   26   57 1
    52   27   28 ar
    53   27   33 1
    54   28   29 ar
    55   28   58 1
    56   29   30 1
    57   30   31 2
    58   30   32 1
    59   33   34 1
    60   33   35 1
    61   33   36 1
@<TRIPOS>MOLECULE
ZINC03624905
   67    69     0     0     0
SMALL
USER_CHARGES
butyl methyl 2-amino-4-(4-isopropoxy-3-methoxy-phenyl)-8-methyl-9-oxo-7-thia-1-azabicyclo[4.3.0]nona-2,5-diene-3,5-dicarboxylate
@<TRIPOS>ATOM
      1 C1          5.5915    8.0077   -0.8348 C.3       1 <0>        -0.1519
      2 C2          4.1421    7.5190   -0.8737 C.3       1 <0>        -0.1217
      3 C3          4.1070    6.0076   -0.6388 C.3       1 <0>        -0.1190
      4 C4          2.6576    5.5190   -0.6776 C.3       1 <0>         0.0686
      5 O1          2.6248    4.1073   -0.4582 O.3       1 <0>        -0.3392
      6 C5          1.4114    3.5142   -0.4618 C.2       1 <0>         0.5401
      7 O2          0.4085    4.1804   -0.6466 O.2       1 <0>        -0.5311
      8 C6          1.3060    2.1306   -0.2525 C.2       1 <0>        -0.2874
      9 C7          0.0937    1.5416   -0.1364 C.2       1 <0>         0.4810
     10 N1         -0.0915    0.1689    0.0732 N.am      1 <0>        -0.5109
     11 C8         -1.3201   -0.3796    0.1840 C.2       1 <0>         0.5191
     12 O3         -2.3216    0.2990    0.1060 O.2       1 <0>        -0.4501
     13 C9         -1.3989   -1.8720    0.4087 C.3       1 <0>        -0.1178
     14 H1         -1.9123   -2.3692   -0.4144 H         1 <0>         0.1642
     15 S1          0.3862   -2.2938    0.4306 S.3       1 <0>         0.0229
     16 C10         1.0199   -0.6472    0.1696 C.2       1 <0>         0.1782
     17 C11         2.3037   -0.2096    0.0749 C.2       1 <0>        -0.1508
     18 C12         2.5480    1.2685   -0.1513 C.3       1 <0>         0.0838
     19 H2          3.1553    1.6440    0.6723 H         1 <0>         0.1005
     20 C13         3.3365    1.4267   -1.4258 C.ar      1 <0>        -0.0667
     21 C14         2.8172    0.9631   -2.6203 C.ar      1 <0>        -0.1026
     22 C15         3.5342    1.1109   -3.7930 C.ar      1 <0>        -0.1776
     23 C16         4.7811    1.7148   -3.7712 C.ar      1 <0>         0.1062
     24 C17         5.3063    2.1763   -2.5680 C.ar      1 <0>         0.0962
     25 C18         4.5800    2.0301   -1.3971 C.ar      1 <0>        -0.1250
     26 O4          6.5299    2.7693   -2.5414 O.3       1 <0>        -0.3062
     27 C19         7.0058    3.2182   -1.2710 C.3       1 <0>         0.0254
     28 O5          5.4903    1.8556   -4.9230 O.3       1 <0>        -0.2995
     29 C20         4.8418    1.4674   -6.1357 C.3       1 <0>         0.0766
     30 C21         5.4609    2.2268   -7.3108 C.3       1 <0>        -0.1484
     31 C22         5.0198   -0.0370   -6.3502 C.3       1 <0>        -0.1806
     32 C23         3.3767   -1.1055    0.1846 C.2       1 <0>         0.5230
     33 O6          3.1642   -2.2912    0.3669 O.2       1 <0>        -0.4985
     34 O7          4.6462   -0.6539    0.0882 O.3       1 <0>        -0.3339
     35 C24         5.6902   -1.6222    0.2093 C.3       1 <0>         0.0354
     36 C25        -2.0622   -2.1977    1.7484 C.3       1 <0>        -0.1277
     37 N2         -1.0195    2.3341   -0.2353 N.pl3     1 <0>        -0.8297
     38 H3          5.6165    9.0844   -1.0022 H         1 <0>         0.0569
     39 H4          6.0253    7.7812    0.1391 H         1 <0>         0.0556
     40 H5          6.1652    7.5055   -1.6138 H         1 <0>         0.0565
     41 H6          3.7083    7.7455   -1.8477 H         1 <0>         0.0646
     42 H7          3.5684    8.0212   -0.0947 H         1 <0>         0.0645
     43 H8          4.5408    5.7811    0.3352 H         1 <0>         0.0731
     44 H9          4.6807    5.5054   -1.4177 H         1 <0>         0.0740
     45 H10         2.2238    5.7455   -1.6516 H         1 <0>         0.0648
     46 H11         2.0839    6.0212    0.1013 H         1 <0>         0.0649
     47 H12         1.8475    0.4880   -2.6378 H         1 <0>         0.1121
     48 H13         3.1243    0.7519   -4.7254 H         1 <0>         0.1323
     49 H14         4.9855    2.3871   -0.4619 H         1 <0>         0.1362
     50 H15         7.9901    3.6707   -1.3909 H         1 <0>         0.0971
     51 H16         6.3141    3.9557   -0.8639 H         1 <0>         0.0555
     52 H17         7.0761    2.3708   -0.5892 H         1 <0>         0.0548
     53 H18         3.7794    1.7020   -6.0708 H         1 <0>         0.0706
     54 H19         6.5234    1.9922   -7.3757 H         1 <0>         0.0674
     55 H20         4.9663    1.9307   -8.2359 H         1 <0>         0.0756
     56 H21         5.3342    3.2986   -7.1580 H         1 <0>         0.0645
     57 H22         6.0823   -0.2716   -6.4151 H         1 <0>         0.0680
     58 H23         4.5787   -0.5781   -5.5130 H         1 <0>         0.0621
     59 H24         4.5251   -0.3332   -7.2752 H         1 <0>         0.0706
     60 H25         6.6570   -1.1280    0.1134 H         1 <0>         0.1022
     61 H26         5.6250   -2.1068    1.1835 H         1 <0>         0.0616
     62 H27         5.5849   -2.3702   -0.5764 H         1 <0>         0.0612
     63 H28        -1.5633   -1.6452    2.5446 H         1 <0>         0.0728
     64 H29        -3.1137   -1.9125    1.7121 H         1 <0>         0.0884
     65 H30        -1.9823   -3.2672    1.9430 H         1 <0>         0.0914
     66 H31        -1.0316    3.2081    0.1853 H         1 <0>         0.4246
     67 H32        -1.7956    2.0212   -0.7259 H         1 <0>         0.4111
@<TRIPOS>BOND
     1    1    2 1
     2    1   38 1
     3    1   39 1
     4    1   40 1
     5    2    3 1
     6    2   41 1
     7    2   42 1
     8    3    4 1
     9    3   43 1
    10    3   44 1
    11    4    5 1
    12    4   45 1
    13    4   46 1
    14    5    6 1
    15    6    7 2
    16    6    8 1
    17    8   18 1
    18    8    9 2
    19    9   10 1
    20    9   37 1
    21   10   16 1
    22   10   11 am
    23   11   12 2
    24   11   13 1
    25   13   14 1
    26   13   15 1
    27   13   36 1
    28   15   16 1
    29   16   17 2
    30   17   18 1
    31   17   32 1
    32   18   19 1
    33   18   20 1
    34   20   25 ar
    35   20   21 ar
    36   21   22 ar
    37   21   47 1
    38   22   23 ar
    39   22   48 1
    40   23   24 ar
    41   23   28 1
    42   24   25 ar
    43   24   26 1
    44   25   49 1
    45   26   27 1
    46   27   50 1
    47   27   51 1
    48   27   52 1
    49   28   29 1
    50   29   30 1
    51   29   31 1
    52   29   53 1
    53   30   54 1
    54   30   55 1
    55   30   56 1
    56   31   57 1
    57   31   58 1
    58   31   59 1
    59   32   33 2
    60   32   34 1
    61   34   35 1
    62   35   60 1
    63   35   61 1
    64   35   62 1
    65   36   63 1
    66   36   64 1
    67   36   65 1
    68   37   66 1
    69   37   67 1
@<TRIPOS>MOLECULE
ZINC12630369
   61    63     0     0     0
SMALL
USER_CHARGES
(NZ)-N-[3-(2-ethoxyethyl)-6-sulfamoyl-1,3-benzothiazol-2-ylidene]-4-(p-tolylsulfonyl)butanamide
@<TRIPOS>ATOM
      1 C1          0.6742    1.1038   -4.7664 C.3       1 <0>        -0.1527
      2 C2         -0.2798    1.5953   -3.6760 C.3       1 <0>         0.0632
      3 O1          0.2019    1.1766   -2.3974 O.3       1 <0>        -0.3905
      4 C3         -0.6212    1.5864   -1.3035 C.3       1 <0>         0.0377
      5 C4         -0.0127    1.0858    0.0080 C.3       1 <0>         0.0989
      6 N1         -0.7779    1.6209    1.1369 N.pl3     1 <0>        -0.4984
      7 C5         -0.1264    1.9913    2.2984 C.ar      1 <0>         0.1839
      8 C6          1.2468    1.9307    2.5842 C.ar      1 <0>        -0.1338
      9 C7          1.7301    2.3445    3.8027 C.ar      1 <0>         0.0200
     10 C8          0.8823    2.8326    4.7831 C.ar      1 <0>        -0.6845
     11 C9         -0.4758    2.9038    4.5282 C.ar      1 <0>         0.0753
     12 C10        -0.9601    2.4898    3.3099 C.ar      1 <0>        -0.2187
     13 S1         -2.5767    2.4089    2.5812 S.3       1 <0>         0.1836
     14 C11        -2.1266    1.7574    1.0384 C.2       1 <0>         0.4185
     15 N2         -2.9133    1.4602    0.0064 N.2       1 <0>        -0.5961
     16 C12        -4.2239    1.6623    0.0902 C.2       1 <0>         0.4857
     17 O2         -4.7048    2.1188    1.1096 O.2       1 <0>        -0.5192
     18 C13        -5.1145    1.3259   -1.0780 C.3       1 <0>        -0.1043
     19 C14        -6.5666    1.6513   -0.7227 C.3       1 <0>        -0.1055
     20 C15        -7.4708    1.3098   -1.9087 C.3       1 <0>        -0.6088
     21 S2         -9.1925    1.6956   -1.4874 S.o2      1 <0>         2.4965
     22 O3         -9.6578    0.8142   -0.4746 O.2       1 <0>        -0.9329
     23 O4         -9.3618    3.1006   -1.3588 O.2       1 <0>        -0.9333
     24 C16       -10.1181    1.2607   -2.9222 C.ar      1 <0>        -0.6679
     25 C17       -10.3425    2.2002   -3.9110 C.ar      1 <0>        -0.0197
     26 C18       -11.0646    1.8576   -5.0389 C.ar      1 <0>        -0.1424
     27 C19       -11.5713    0.5785   -5.1730 C.ar      1 <0>        -0.0289
     28 C20       -11.3514   -0.3596   -4.1818 C.ar      1 <0>        -0.1422
     29 C21       -10.6248   -0.0184   -3.0563 C.ar      1 <0>        -0.0196
     30 C22       -12.3638    0.2067   -6.3997 C.3       1 <0>        -0.1265
     31 S3          1.5258    3.3563    6.3376 S.o2      1 <0>         2.7080
     32 O5          0.4598    3.2589    7.2721 O.2       1 <0>        -0.9561
     33 O6          2.7602    2.6755    6.5163 O.2       1 <0>        -0.9560
     34 N3          1.8889    4.9662    6.1998 N.pl3     1 <0>        -1.2488
     35 H1          0.7293    0.0156   -4.7375 H         1 <0>         0.0643
     36 H2          0.3068    1.4232   -5.7417 H         1 <0>         0.0733
     37 H3          1.6663    1.5224   -4.5970 H         1 <0>         0.0629
     38 H4         -1.2718    1.1767   -3.8454 H         1 <0>         0.0523
     39 H5         -0.3349    2.6836   -3.7049 H         1 <0>         0.0479
     40 H6         -1.6203    1.1676   -1.4237 H         1 <0>         0.1096
     41 H7         -0.6833    2.6744   -1.2832 H         1 <0>         0.0471
     42 H8         -0.0448   -0.0035    0.0310 H         1 <0>         0.0983
     43 H9          1.0222    1.4204    0.0794 H         1 <0>         0.1028
     44 H10         1.9312    1.5544    1.8383 H         1 <0>         0.1473
     45 H11         2.7906    2.2882    3.9991 H         1 <0>         0.1597
     46 H12        -1.1510    3.2818    5.2815 H         1 <0>         0.1618
     47 H13        -4.8126    1.9124   -1.9458 H         1 <0>         0.1039
     48 H14        -5.0260    0.2642   -1.3084 H         1 <0>         0.1053
     49 H15        -6.8685    1.0648    0.1451 H         1 <0>         0.0904
     50 H16        -6.6551    2.7130   -0.4923 H         1 <0>         0.0900
     51 H17        -7.1689    1.8963   -2.7765 H         1 <0>         0.1382
     52 H18        -7.3823    0.2481   -2.1391 H         1 <0>         0.1386
     53 H19        -9.9505    3.2009   -3.8041 H         1 <0>         0.1426
     54 H20       -11.2368    2.5906   -5.8132 H         1 <0>         0.1338
     55 H21       -11.7475   -1.3588   -4.2864 H         1 <0>         0.1339
     56 H22       -10.4533   -0.7512   -2.2817 H         1 <0>         0.1427
     57 H23       -13.4202    0.4109   -6.2255 H         1 <0>         0.0807
     58 H24       -12.0155    0.7943   -7.2492 H         1 <0>         0.0735
     59 H25       -12.2289   -0.8539   -6.6118 H         1 <0>         0.0736
     60 H26         1.7311    5.4290    5.3621 H         1 <0>         0.4175
     61 H27         2.2594    5.4463    6.9569 H         1 <0>         0.4236
@<TRIPOS>BOND
     1    1    2 1
     2    1   35 1
     3    1   36 1
     4    1   37 1
     5    2    3 1
     6    2   38 1
     7    2   39 1
     8    3    4 1
     9    4    5 1
    10    4   40 1
    11    4   41 1
    12    5    6 1
    13    5   42 1
    14    5   43 1
    15    6   14 1
    16    6    7 1
    17    7   12 ar
    18    7    8 ar
    19    8    9 ar
    20    8   44 1
    21    9   10 ar
    22    9   45 1
    23   10   11 ar
    24   10   31 1
    25   11   12 ar
    26   11   46 1
    27   12   13 1
    28   13   14 1
    29   14   15 2
    30   15   16 1
    31   16   17 2
    32   16   18 1
    33   18   19 1
    34   18   47 1
    35   18   48 1
    36   19   20 1
    37   19   49 1
    38   19   50 1
    39   20   21 1
    40   20   51 1
    41   20   52 1
    42   21   22 2
    43   21   23 2
    44   21   24 1
    45   24   29 ar
    46   24   25 ar
    47   25   26 ar
    48   25   53 1
    49   26   27 ar
    50   26   54 1
    51   27   28 ar
    52   27   30 1
    53   28   29 ar
    54   28   55 1
    55   29   56 1
    56   30   57 1
    57   30   58 1
    58   30   59 1
    59   31   32 2
    60   31   33 2
    61   31   34 1
    62   34   60 1
    63   34   61 1
@<TRIPOS>MOLECULE
ZINC22526181
   59    62     0     0     0
SMALL
USER_CHARGES
4-[2-[2-[(3-isobutyl-1,2,4-oxadiazol-5-yl)methylsulfanyl]-4-oxo-quinazolin-3-yl]ethyl]benzenesulfonamide
@<TRIPOS>ATOM
      1 C1         -6.9994   -4.9294    2.5888 C.3       1 <0>        -0.1496
      2 C2         -8.2254   -4.6374    1.7213 C.3       1 <0>        -0.0912
      3 C3         -9.4882   -5.1005    2.4506 C.3       1 <0>        -0.1485
      4 C4         -8.3139   -3.1337    1.4530 C.3       1 <0>        -0.0313
      5 C5         -7.1295   -2.7001    0.6283 C.2       1 <0>         0.1807
      6 N1         -5.9416   -2.2813    1.0999 N.2       1 <0>        -0.4504
      7 C6         -5.2184   -2.0066    0.0411 C.2       1 <0>         0.1757
      8 O1         -5.9772   -2.2711   -1.0268 O.3       1 <0>         0.0917
      9 N2         -7.0667   -2.6666   -0.6692 N.2       1 <0>        -0.3712
     10 C7         -3.8005   -1.4964    0.0304 C.3       1 <0>        -0.0242
     11 S1         -2.6552   -2.8978    0.0127 S.3       1 <0>         0.0396
     12 C8         -1.1180   -2.0367    0.0027 C.2       1 <0>         0.3678
     13 N3         -1.1361   -0.7266    0.0094 N.2       1 <0>        -0.5260
     14 C9          0.0021   -0.0041    0.0020 C.ar      1 <0>         0.1660
     15 C10        -0.0169    1.3939    0.0097 C.ar      1 <0>        -0.1096
     16 C11         1.1610    2.0862    0.0022 C.ar      1 <0>        -0.0685
     17 C12         2.3807    1.4218   -0.0131 C.ar      1 <0>        -0.1356
     18 C13         2.4319    0.0552   -0.0209 C.ar      1 <0>        -0.0389
     19 C14         1.2453   -0.6766   -0.0135 C.ar      1 <0>        -0.1979
     20 C15         1.2395   -2.1458   -0.0208 C.2       1 <0>         0.5555
     21 O2          2.2776   -2.7813   -0.0345 O.2       1 <0>        -0.4990
     22 N4          0.0366   -2.7659   -0.0122 N.am      1 <0>        -0.5262
     23 C16        -0.0274   -4.2295   -0.0194 C.3       1 <0>         0.0910
     24 C17        -0.0634   -4.7313   -1.4644 C.3       1 <0>        -0.1069
     25 C18        -0.1292   -6.2368   -1.4718 C.ar      1 <0>        -0.0246
     26 C19         1.0365   -6.9796   -1.4926 C.ar      1 <0>        -0.1306
     27 C20         0.9762   -8.3606   -1.4950 C.ar      1 <0>        -0.0217
     28 C21        -0.2500   -8.9989   -1.4858 C.ar      1 <0>        -0.6625
     29 C22        -1.4157   -8.2561   -1.4703 C.ar      1 <0>        -0.0098
     30 C23        -1.3554   -6.8751   -1.4635 C.ar      1 <0>        -0.1327
     31 S2         -0.3269  -10.7592   -1.4933 S.o2      1 <0>         2.6344
     32 O3          0.9051  -11.2218   -0.9572 O.2       1 <0>        -0.9851
     33 O4         -1.5831  -11.1132   -0.9311 O.2       1 <0>        -0.9510
     34 N5         -0.3646  -11.2409   -3.0772 N.pl3     1 <0>        -1.1624
     35 H1         -6.0915   -4.5965    2.0645 H         1 <0>         0.0541
     36 H2         -6.9358   -6.0105    2.7817 H         1 <0>         0.0579
     37 H3         -7.0895   -4.3912    3.5439 H         1 <0>         0.0608
     38 H4         -8.1353   -5.1756    0.7662 H         1 <0>         0.0727
     39 H5        -10.3696   -4.8906    1.8269 H         1 <0>         0.0584
     40 H6         -9.5782   -4.5623    3.4057 H         1 <0>         0.0601
     41 H7         -9.4246   -6.1816    2.6435 H         1 <0>         0.0621
     42 H8         -9.2423   -2.9129    0.9059 H         1 <0>         0.0954
     43 H9         -8.3137   -2.5900    2.4092 H         1 <0>         0.1005
     44 H10        -3.6394   -0.8799   -0.8662 H         1 <0>         0.1432
     45 H11        -3.6226   -0.8888    0.9299 H         1 <0>         0.1501
     46 H12        -0.9579    1.9239    0.0170 H         1 <0>         0.1409
     47 H13         1.1435    3.1661    0.0078 H         1 <0>         0.1362
     48 H14         3.2987    1.9907   -0.0188 H         1 <0>         0.1350
     49 H15         3.3846   -0.4534   -0.0324 H         1 <0>         0.1388
     50 H16         0.8588   -4.6377    0.4886 H         1 <0>         0.1140
     51 H17        -0.9357   -4.5594    0.5061 H         1 <0>         0.1035
     52 H18        -0.9496   -4.3230   -1.9723 H         1 <0>         0.0921
     53 H19         0.8449   -4.4014   -1.9899 H         1 <0>         0.0915
     54 H20         1.9944   -6.4809   -1.5035 H         1 <0>         0.1369
     55 H21         1.8869   -8.9409   -1.5067 H         1 <0>         0.1432
     56 H22        -2.3737   -8.7548   -1.4631 H         1 <0>         0.1447
     57 H23        -2.2661   -6.2948   -1.4514 H         1 <0>         0.1365
     58 H24        -0.4130  -12.3388   -3.1255 H         1 <0>         0.4146
     59 H25         0.5443  -10.8911   -3.5885 H         1 <0>         0.4093
@<TRIPOS>BOND
     1    1    2 1
     2    1   35 1
     3    1   36 1
     4    1   37 1
     5    2    3 1
     6    2    4 1
     7    2   38 1
     8    3   39 1
     9    3   40 1
    10    3   41 1
    11    4    5 1
    12    4   42 1
    13    4   43 1
    14    5    9 2
    15    5    6 1
    16    6    7 2
    17    7    8 1
    18    7   10 1
    19    8    9 1
    20   10   11 1
    21   10   44 1
    22   10   45 1
    23   11   12 1
    24   12   22 1
    25   12   13 2
    26   13   14 1
    27   14   19 ar
    28   14   15 ar
    29   15   16 ar
    30   15   46 1
    31   16   17 ar
    32   16   47 1
    33   17   18 ar
    34   17   48 1
    35   18   19 ar
    36   18   49 1
    37   19   20 1
    38   20   21 2
    39   20   22 am
    40   22   23 1
    41   23   24 1
    42   23   50 1
    43   23   51 1
    44   24   25 1
    45   24   52 1
    46   24   53 1
    47   25   30 ar
    48   25   26 ar
    49   26   27 ar
    50   26   54 1
    51   27   28 ar
    52   27   55 1
    53   28   29 ar
    54   28   31 1
    55   29   30 ar
    56   29   56 1
    57   30   57 1
    58   31   32 2
    59   31   33 2
    60   31   34 1
    61   34   58 1
    62   34   59 1
@<TRIPOS>MOLECULE
ZINC36602996
   73    75     0     0     0
SMALL
USER_CHARGES

@<TRIPOS>ATOM
      1 C1         -1.2968    1.2733   -3.9988 C.3       1 <0>        -0.0728
      2 C2         -1.0174    0.3111   -2.8731 C.2       1 <0>        -0.0193
      3 C3         -1.9434   -0.3038   -2.1157 C.2       1 <0>        -0.2200
      4 C4         -1.2445   -1.1102   -1.1883 C.2       1 <0>        -0.1967
      5 C5          0.0669   -0.9398   -1.4344 C.2       1 <0>        -0.0147
      6 O1          0.1984   -0.0824   -2.4597 O.3       1 <0>        -0.1386
      7 C6          1.1968   -1.6030   -0.6897 C.3       1 <0>         0.1684
      8 N1          1.4372   -2.9344   -1.2518 N.am      1 <0>        -0.5804
      9 C7          2.3473   -3.0962   -2.3884 C.3       1 <0>         0.1382
     10 H1          1.8380   -3.6344   -3.1878 H         1 <0>         0.1296
     11 C8          3.5616   -3.8751   -1.9526 C.ar      1 <0>        -0.1001
     12 C9          3.9117   -3.9178   -0.6155 C.ar      1 <0>        -0.1042
     13 C10         5.0251   -4.6314   -0.2125 C.ar      1 <0>        -0.0876
     14 C11         5.7911   -5.3036   -1.1455 C.ar      1 <0>        -0.1323
     15 C12         5.4419   -5.2624   -2.4873 C.ar      1 <0>         0.1272
     16 C13         4.3205   -4.5505   -2.8884 C.ar      1 <0>        -0.1608
     17 O2          6.1937   -5.9229   -3.4068 O.3       1 <0>        -0.4916
     18 C14         2.7732   -1.7398   -2.8880 C.2       1 <0>         0.5084
     19 O3          2.3775   -0.7371   -2.3322 O.2       1 <0>        -0.4899
     20 N2          3.5940   -1.6409   -3.9524 N.am      1 <0>        -0.7236
     21 C15         4.0081   -0.3222   -4.4381 C.3       1 <0>         0.1794
     22 C16         2.8206    0.3696   -5.1105 C.3       1 <0>        -0.1620
     23 C17         4.4926    0.5259   -3.2605 C.3       1 <0>        -0.2033
     24 C18         5.1435   -0.4851   -5.4506 C.3       1 <0>        -0.1166
     25 C19         6.1254   -1.5461   -4.9495 C.3       1 <0>        -0.0625
     26 C20         5.4504   -2.9190   -4.9766 C.3       1 <0>        -0.1945
     27 C21         7.3594   -1.5667   -5.8537 C.3       1 <0>        -0.1429
     28 C22         6.5482   -1.2139   -3.5171 C.3       1 <0>        -0.1496
     29 C23         0.8211   -4.0102   -0.7233 C.2       1 <0>         0.5640
     30 O4          0.1137   -3.8848    0.2572 O.2       1 <0>        -0.5034
     31 C24         1.0055   -5.3430   -1.3362 C.ar      1 <0>        -0.0846
     32 C25         1.8804   -5.5049   -2.4117 C.ar      1 <0>        -0.1559
     33 C26         2.0483   -6.7513   -2.9787 C.ar      1 <0>        -0.0640
     34 C27         1.3515   -7.8393   -2.4838 C.ar      1 <0>        -0.0242
     35 C28         0.4824   -7.6856   -1.4183 C.ar      1 <0>        -0.0641
     36 C29         0.3100   -6.4459   -0.8381 C.ar      1 <0>        -0.0551
     37 N3          1.5362   -9.1736   -3.0974 N.pl3     1 <0>         0.0288
     38 O5          2.2946   -9.3109   -4.0289 O.2       1 <0>        -0.1521
     39 O6          0.9286  -10.1262   -2.6671 O.3       1 <0>        -0.1499
     40 H2         -0.3547    1.6075   -4.4334 H         1 <0>         0.0734
     41 H3         -1.8930    0.7750   -4.7631 H         1 <0>         0.0811
     42 H4         -1.8447    2.1334   -3.6140 H         1 <0>         0.0831
     43 H5         -3.0152   -0.2007   -2.1995 H         1 <0>         0.1418
     44 H6         -1.6799   -1.7415   -0.4279 H         1 <0>         0.1438
     45 H7          2.0993   -0.9995   -0.7864 H         1 <0>         0.1567
     46 H8          0.9327   -1.6956    0.3637 H         1 <0>         0.1011
     47 H9          3.3147   -3.3924    0.1152 H         1 <0>         0.1318
     48 H10         5.2965   -4.6632    0.8323 H         1 <0>         0.1347
     49 H11         6.6612   -5.8604   -0.8303 H         1 <0>         0.1355
     50 H12         4.0439   -4.5208   -3.9319 H         1 <0>         0.1374
     51 H13         5.9110   -6.8340   -3.5648 H         1 <0>         0.3962
     52 H14         3.9105   -2.4428   -4.3970 H         1 <0>         0.4119
     53 H15         2.0472    0.5671   -4.3682 H         1 <0>         0.0746
     54 H16         3.1501    1.3106   -5.5509 H         1 <0>         0.0640
     55 H17         2.4184   -0.2759   -5.8913 H         1 <0>         0.0524
     56 H18         5.3213    0.0200   -2.7651 H         1 <0>         0.0860
     57 H19         4.8260    1.4975   -3.6254 H         1 <0>         0.0573
     58 H20         3.6758    0.6645   -2.5522 H         1 <0>         0.0906
     59 H21         4.7321   -0.7955   -6.4111 H         1 <0>         0.0693
     60 H22         5.6644    0.4651   -5.5685 H         1 <0>         0.0820
     61 H23         4.7775   -2.9762   -5.8321 H         1 <0>         0.0609
     62 H24         6.2104   -3.6959   -5.0595 H         1 <0>         0.0761
     63 H25         4.8826   -3.0628   -4.0574 H         1 <0>         0.0914
     64 H26         7.8403   -0.5886   -5.8345 H         1 <0>         0.0559
     65 H27         8.0589   -2.3225   -5.4968 H         1 <0>         0.0580
     66 H28         7.0582   -1.8034   -6.8742 H         1 <0>         0.0554
     67 H29         5.7270   -1.4351   -2.8353 H         1 <0>         0.0674
     68 H30         7.4170   -1.8138   -3.2463 H         1 <0>         0.0515
     69 H31         6.8017   -0.1559   -3.4493 H         1 <0>         0.0628
     70 H32         2.4243   -4.6562   -2.7993 H         1 <0>         0.2100
     71 H33         2.7249   -6.8779   -3.8109 H         1 <0>         0.1559
     72 H34        -0.0588   -8.5389   -1.0369 H         1 <0>         0.1619
     73 H35        -0.3650   -6.3281   -0.0033 H         1 <0>         0.1611
@<TRIPOS>BOND
     1    1    2 1
     2    1   40 1
     3    1   41 1
     4    1   42 1
     5    2    6 1
     6    2    3 2
     7    3    4 1
     8    3   43 1
     9    4    5 2
    10    4   44 1
    11    5    6 1
    12    5    7 1
    13    7    8 1
    14    7   45 1
    15    7   46 1
    16    8    9 1
    17    8   29 am
    18    9   10 1
    19    9   11 1
    20    9   18 1
    21   11   16 ar
    22   11   12 ar
    23   12   13 ar
    24   12   47 1
    25   13   14 ar
    26   13   48 1
    27   14   15 ar
    28   14   49 1
    29   15   16 ar
    30   15   17 1
    31   16   50 1
    32   17   51 1
    33   18   19 2
    34   18   20 am
    35   20   21 1
    36   20   52 1
    37   21   22 1
    38   21   23 1
    39   21   24 1
    40   22   53 1
    41   22   54 1
    42   22   55 1
    43   23   56 1
    44   23   57 1
    45   23   58 1
    46   24   25 1
    47   24   59 1
    48   24   60 1
    49   25   26 1
    50   25   27 1
    51   25   28 1
    52   26   61 1
    53   26   62 1
    54   26   63 1
    55   27   64 1
    56   27   65 1
    57   27   66 1
    58   28   67 1
    59   28   68 1
    60   28   69 1
    61   29   30 2
    62   29   31 1
    63   31   36 ar
    64   31   32 ar
    65   32   33 ar
    66   32   70 1
    67   33   34 ar
    68   33   71 1
    69   34   35 ar
    70   34   37 1
    71   35   36 ar
    72   35   72 1
    73   36   73 1
    74   37   38 2
    75   37   39 1
@<TRIPOS>MOLECULE
ZINC59937902
   60    63     0     0     0
SMALL
USER_CHARGES

@<TRIPOS>ATOM
      1 C1          0.6669    1.5462    0.0737 C.3       1 <0>        -0.1153
      2 C2          0.5950    0.0410    0.0753 C.ar      1 <0>        -0.0969
      3 C3          1.4296   -0.6888    0.9018 C.ar      1 <0>        -0.1007
      4 C4          1.3664   -2.0684    0.9053 C.ar      1 <0>        -0.1147
      5 C5          0.4633   -2.7228    0.0779 C.ar      1 <0>         0.1354
      6 C6         -0.3738   -1.9870   -0.7507 C.ar      1 <0>        -0.1373
      7 C7         -0.3094   -0.6074   -0.7457 C.ar      1 <0>        -0.1015
      8 N1          0.3971   -4.1205    0.0786 N.am      1 <0>        -0.6644
      9 C8          0.6310   -4.8055    1.2155 C.2       1 <0>         0.5371
     10 O1          0.8049   -4.2099    2.2576 O.2       1 <0>        -0.5002
     11 C9          0.6763   -6.3117    1.1919 C.3       1 <0>        -0.1521
     12 S1          1.0074   -6.9329    2.8637 S.3       1 <0>         0.0974
     13 C10         1.0294   -8.6842    2.6711 C.2       1 <0>         0.1992
     14 N2          0.8484   -9.3389    1.5492 N.2       1 <0>        -0.3074
     15 N3          0.9431  -10.7090    1.8255 N.2       1 <0>        -0.3074
     16 C11         1.1791  -10.8500    3.1079 C.2       1 <0>         0.1991
     17 N4          1.2443   -9.6010    3.6653 N.pl3     1 <0>        -0.3356
     18 N5          1.4851   -9.3121    5.0149 N.2       1 <0>        -0.2551
     19 C12         0.4899   -9.2149    5.8467 C.2       1 <0>         0.2408
     20 C13         0.7417   -8.9127    7.2588 C.2       1 <0>        -0.0206
     21 C14        -0.2055   -8.7889    8.2336 C.2       1 <0>        -0.1208
     22 C15         0.4787   -8.4986    9.4278 C.2       1 <0>        -0.2236
     23 C16         1.7943   -8.4589    9.1316 C.2       1 <0>         0.0116
     24 O2          1.9500   -8.7142    7.8230 O.3       1 <0>        -0.1510
     25 S2          1.3826  -12.3776    3.9620 S.3       1 <0>         0.0972
     26 C17         1.1904  -13.6334    2.6671 C.3       1 <0>        -0.1520
     27 C18         1.3439  -15.0054    3.2712 C.2       1 <0>         0.5370
     28 O3          1.5615  -15.1244    4.4585 O.2       1 <0>        -0.5002
     29 N6          1.2393  -16.1003    2.4922 N.am      1 <0>        -0.6645
     30 C19         1.2708  -17.3748    3.0689 C.ar      1 <0>         0.1354
     31 C20         1.8439  -18.4360    2.3804 C.ar      1 <0>        -0.1370
     32 C21         1.8734  -19.6929    2.9523 C.ar      1 <0>        -0.1014
     33 C22         1.3327  -19.8952    4.2088 C.ar      1 <0>        -0.0968
     34 C23         0.7609  -18.8407    4.8968 C.ar      1 <0>        -0.1010
     35 C24         0.7342  -17.5800    4.3332 C.ar      1 <0>        -0.1146
     36 C25         1.3661  -21.2680    4.8296 C.3       1 <0>        -0.1154
     37 H1         -0.0195    1.9436    0.8214 H         1 <0>         0.0711
     38 H2          1.6833    1.8617    0.3095 H         1 <0>         0.0671
     39 H3          0.3890    1.9222   -0.9109 H         1 <0>         0.0668
     40 H4          2.1317   -0.1793    1.5451 H         1 <0>         0.1270
     41 H5          2.0190   -2.6378    1.5505 H         1 <0>         0.1349
     42 H6         -1.0773   -2.4930   -1.3953 H         1 <0>         0.1269
     43 H7         -0.9629   -0.0345   -1.3868 H         1 <0>         0.1276
     44 H8          0.1830   -4.5963   -0.7390 H         1 <0>         0.4152
     45 H9         -0.2814   -6.6986    0.8435 H         1 <0>         0.1310
     46 H10         1.4677   -6.6408    0.5186 H         1 <0>         0.1331
     47 H11        -0.5220   -9.3569    5.4970 H         1 <0>         0.1571
     48 H12        -1.2735   -8.8933    8.1117 H         1 <0>         0.1635
     49 H13         0.0344   -8.3372   10.3989 H         1 <0>         0.1614
     50 H14         2.5911   -8.2587    9.8327 H         1 <0>         0.2140
     51 H15         0.2017  -13.5430    2.2172 H         1 <0>         0.1321
     52 H16         1.9526  -13.4860    1.9020 H         1 <0>         0.1320
     53 H17         1.1422  -16.0047    1.5319 H         1 <0>         0.4152
     54 H18         2.2657  -18.2788    1.3987 H         1 <0>         0.1271
     55 H19         2.3189  -20.5186    2.4174 H         1 <0>         0.1277
     56 H20         0.3388  -19.0021    5.8777 H         1 <0>         0.1269
     57 H21         0.2918  -16.7558    4.8729 H         1 <0>         0.1346
     58 H22         2.2843  -21.3840    5.4055 H         1 <0>         0.0712
     59 H23         0.5062  -21.3900    5.4883 H         1 <0>         0.0670
     60 H24         1.3321  -22.0229    4.0441 H         1 <0>         0.0668
@<TRIPOS>BOND
     1    1    2 1
     2    1   37 1
     3    1   38 1
     4    1   39 1
     5    2    7 ar
     6    2    3 ar
     7    3    4 ar
     8    3   40 1
     9    4    5 ar
    10    4   41 1
    11    5    6 ar
    12    5    8 1
    13    6    7 ar
    14    6   42 1
    15    7   43 1
    16    8    9 am
    17    8   44 1
    18    9   10 2
    19    9   11 1
    20   11   12 1
    21   11   45 1
    22   11   46 1
    23   12   13 1
    24   13   17 1
    25   13   14 2
    26   14   15 1
    27   15   16 2
    28   16   17 1
    29   16   25 1
    30   17   18 1
    31   18   19 2
    32   19   20 1
    33   19   47 1
    34   20   24 1
    35   20   21 2
    36   21   22 1
    37   21   48 1
    38   22   23 2
    39   22   49 1
    40   23   24 1
    41   23   50 1
    42   25   26 1
    43   26   27 1
    44   26   51 1
    45   26   52 1
    46   27   28 2
    47   27   29 am
    48   29   30 1
    49   29   53 1
    50   30   35 ar
    51   30   31 ar
    52   31   32 ar
    53   31   54 1
    54   32   33 ar
    55   32   55 1
    56   33   34 ar
    57   33   36 1
    58   34   35 ar
    59   34   56 1
    60   35   57 1
    61   36   58 1
    62   36   59 1
    63   36   60 1
@<TRIPOS>MOLECULE
ZINC07853199
   50    52     0     0     0
SMALL
USER_CHARGES
3-[(2,4-dimethylphenyl)sulfamoyl]-N-[(5-methyl-2-furyl)methyleneamino]benzamide
@<TRIPOS>ATOM
      1 C1          6.3233    5.3884   -5.0463 C.3       1 <0>        -0.1157
      2 C2          6.1333    4.2010   -4.1380 C.ar      1 <0>        -0.0934
      3 C3          6.5943    4.2484   -2.8349 C.ar      1 <0>        -0.0962
      4 C4          6.4226    3.1618   -2.0003 C.ar      1 <0>        -0.1670
      5 C5          5.7855    2.0203   -2.4707 C.ar      1 <0>         0.1429
      6 C6          5.3281    1.9743   -3.7814 C.ar      1 <0>        -0.0953
      7 C7          5.4988    3.0666   -4.6095 C.ar      1 <0>        -0.0986
      8 C8          4.6420    0.7360   -4.2979 C.3       1 <0>        -0.1161
      9 N1          5.6106    0.9192   -1.6293 N.pl3     1 <0>        -1.0505
     10 S1          5.3061    1.1487   -0.0178 S.o2      1 <0>         2.6920
     11 O1          6.3358    1.9958    0.4735 O.2       1 <0>        -0.9412
     12 O2          5.0479   -0.1352    0.5336 O.2       1 <0>        -0.9410
     13 C9          3.8032    2.0604    0.1037 C.ar      1 <0>        -0.6814
     14 C10         3.8345    3.4438    0.1219 C.ar      1 <0>         0.0144
     15 C11         2.6591    4.1674    0.2161 C.ar      1 <0>        -0.1396
     16 C12         1.4465    3.5131    0.2878 C.ar      1 <0>        -0.0298
     17 C13         1.4082    2.1178    0.2757 C.ar      1 <0>        -0.1512
     18 C14         2.5982    1.3937    0.1800 C.ar      1 <0>         0.0468
     19 C15         0.1134    1.4101    0.3579 C.2       1 <0>         0.5786
     20 O3          0.0827    0.1945    0.3422 O.2       1 <0>        -0.4854
     21 N2         -1.0339    2.1120    0.4447 N.am      1 <0>        -0.5791
     22 N3         -2.2618    1.4413    0.5167 N.2       1 <0>        -0.2147
     23 C16        -3.3693    2.1189    0.6005 C.2       1 <0>         0.1422
     24 C17        -4.6540    1.4171    0.6759 C.2       1 <0>         0.0080
     25 C18        -5.8833    2.0026    0.7719 C.2       1 <0>        -0.1509
     26 C19        -6.8262    0.9592    0.8138 C.2       1 <0>        -0.2188
     27 C20        -6.1386   -0.1995    0.7516 C.2       1 <0>         0.0152
     28 O4         -4.8278    0.0802    0.6684 O.3       1 <0>        -0.1542
     29 C21        -6.7419   -1.5803    0.7720 C.3       1 <0>        -0.0813
     30 H1          7.2739    5.2956   -5.5716 H         1 <0>         0.0720
     31 H2          5.5099    5.4255   -5.7709 H         1 <0>         0.0664
     32 H3          6.3236    6.3031   -4.4534 H         1 <0>         0.0676
     33 H4          7.0894    5.1360   -2.4699 H         1 <0>         0.1305
     34 H5          6.7834    3.1992   -0.9831 H         1 <0>         0.1611
     35 H6          5.1400    3.0329   -5.6276 H         1 <0>         0.1274
     36 H7          3.5695    0.8134   -4.1190 H         1 <0>         0.0740
     37 H8          4.8258    0.6383   -5.3678 H         1 <0>         0.0724
     38 H9          5.0344   -0.1394   -3.7804 H         1 <0>         0.0647
     39 H10         5.6675    0.0202   -1.9889 H         1 <0>         0.4282
     40 H11         4.7807    3.9610    0.0619 H         1 <0>         0.1494
     41 H12         2.6904    5.2468    0.2295 H         1 <0>         0.1460
     42 H13         0.5293    4.0791    0.3572 H         1 <0>         0.1350
     43 H14         2.5752    0.3140    0.1660 H         1 <0>         0.1575
     44 H15        -1.0095    3.0816    0.4572 H         1 <0>         0.3865
     45 H16        -3.3422    3.1985    0.6145 H         1 <0>         0.1494
     46 H17        -6.0918    3.0617    0.8067 H         1 <0>         0.1579
     47 H18        -7.8985    1.0660    0.8862 H         1 <0>         0.1555
     48 H19        -5.9481   -2.3246    0.7082 H         1 <0>         0.0794
     49 H20        -7.2975   -1.7203    1.6992 H         1 <0>         0.0903
     50 H21        -7.4163   -1.6947   -0.0766 H         1 <0>         0.0903
@<TRIPOS>BOND
     1    1    2 1
     2    1   30 1
     3    1   31 1
     4    1   32 1
     5    2    7 ar
     6    2    3 ar
     7    3    4 ar
     8    3   33 1
     9    4    5 ar
    10    4   34 1
    11    5    6 ar
    12    5    9 1
    13    6    7 ar
    14    6    8 1
    15    7   35 1
    16    8   36 1
    17    8   37 1
    18    8   38 1
    19    9   10 1
    20    9   39 1
    21   10   11 2
    22   10   12 2
    23   10   13 1
    24   13   18 ar
    25   13   14 ar
    26   14   15 ar
    27   14   40 1
    28   15   16 ar
    29   15   41 1
    30   16   17 ar
    31   16   42 1
    32   17   18 ar
    33   17   19 1
    34   18   43 1
    35   19   20 2
    36   19   21 am
    37   21   22 1
    38   21   44 1
    39   22   23 2
    40   23   24 1
    41   23   45 1
    42   24   28 1
    43   24   25 2
    44   25   26 1
    45   25   46 1
    46   26   27 2
    47   26   47 1
    48   27   28 1
    49   27   29 1
    50   29   48 1
    51   29   49 1
    52   29   50 1
@<TRIPOS>MOLECULE
ZINC12126900
   57    60     0     0     0
SMALL
USER_CHARGES
4-tert-butyl-N-[5-cyclopropyl-2-(4,5-dimethyl-6-oxo-1H-pyrimidin-2-yl)pyrazol-3-yl]benzamide
@<TRIPOS>ATOM
      1 C1          1.4381    9.2639    0.0489 C.3       1 <0>        -0.0875
      2 C2          0.3106    8.2640    0.0475 C.2       1 <0>        -0.2682
      3 C3          0.5705    6.9252    0.0391 C.2       1 <0>         0.2006
      4 N1         -0.4338    6.0500    0.0438 N.2       1 <0>        -0.5789
      5 C4         -1.6878    6.4461    0.0458 C.2       1 <0>         0.6518
      6 N2         -2.0093    7.7666    0.0544 N.am      1 <0>        -0.6223
      7 H1         -2.9397    8.0408    0.0600 H         1 <0>         0.4293
      8 C5         -1.0293    8.6954    0.0554 C.2       1 <0>         0.5407
      9 O1         -1.2997    9.8850    0.0635 O.2       1 <0>        -0.5181
     10 N3         -2.6977    5.5018    0.0447 N.pl3     1 <0>        -0.3550
     11 C6         -2.5328    4.1468    0.0366 C.2       1 <0>         0.3548
     12 C7         -3.7723    3.5866    0.0335 C.2       1 <0>        -0.2580
     13 C8         -4.7124    4.6227    0.0495 C.2       1 <0>         0.1720
     14 N4         -4.0738    5.7639    0.0527 N.2       1 <0>        -0.2869
     15 C9         -6.2097    4.4522    0.0549 C.3       1 <0>        -0.0951
     16 C10        -6.7659    3.0799   -0.3302 C.3       1 <0>        -0.1583
     17 C11        -6.9037    4.2603   -1.2950 C.3       1 <0>        -0.1582
     18 N5         -1.3198    3.4642    0.0271 N.am      1 <0>        -0.6358
     19 C12        -1.3049    2.1166    0.0197 C.2       1 <0>         0.5679
     20 O2         -2.3509    1.4971    0.0213 O.2       1 <0>        -0.5006
     21 C13        -0.0169    1.3917    0.0097 C.ar      1 <0>        -0.1440
     22 C14         1.1861    2.1000    0.0020 C.ar      1 <0>        -0.0793
     23 C15         2.3847    1.4173   -0.0126 C.ar      1 <0>        -0.1275
     24 C16         2.3964    0.0338   -0.0206 C.ar      1 <0>        -0.0339
     25 C17         1.2077   -0.6743   -0.0131 C.ar      1 <0>        -0.1232
     26 C18         0.0021   -0.0041    0.0020 C.ar      1 <0>        -0.0473
     27 C19         3.7097   -0.7052   -0.0371 C.3       1 <0>        -0.0357
     28 C20         3.7885   -1.5772   -1.2919 C.3       1 <0>        -0.1409
     29 C21         4.8615    0.3018   -0.0427 C.3       1 <0>        -0.1474
     30 C22         3.8123   -1.5906    1.2064 C.3       1 <0>        -0.1409
     31 C23         1.9956    6.4353    0.0310 C.3       1 <0>        -0.1097
     32 H2          1.0281   10.2738    0.0564 H         1 <0>         0.0776
     33 H3          2.0544    9.1153    0.9355 H         1 <0>         0.0720
     34 H4          2.0473    9.1258   -0.8444 H         1 <0>         0.0726
     35 H5         -3.9919    2.5292    0.0231 H         1 <0>         0.1930
     36 H6         -6.7441    5.0153    0.8201 H         1 <0>         0.1302
     37 H7         -6.0488    2.3004   -0.5875 H         1 <0>         0.1050
     38 H8         -7.6665    2.7403    0.1813 H         1 <0>         0.1072
     39 H9         -7.8950    4.6967   -1.4178 H         1 <0>         0.1060
     40 H10        -6.2774    4.2577   -2.1871 H         1 <0>         0.0978
     41 H11        -0.4851    3.9585    0.0259 H         1 <0>         0.4294
     42 H12         1.1783    3.1799    0.0082 H         1 <0>         0.1263
     43 H13         3.3161    1.9640   -0.0179 H         1 <0>         0.1371
     44 H14         1.2238   -1.7542   -0.0194 H         1 <0>         0.1327
     45 H15        -0.9251   -0.5580    0.0083 H         1 <0>         0.1399
     46 H16         3.7153   -0.9464   -2.1778 H         1 <0>         0.0581
     47 H17         4.7383   -2.1117   -1.3038 H         1 <0>         0.0625
     48 H18         2.9679   -2.2946   -1.2879 H         1 <0>         0.0592
     49 H19         4.8054    0.9230    0.8512 H         1 <0>         0.0606
     50 H20         5.8114   -0.2327   -0.0547 H         1 <0>         0.0620
     51 H21         4.7884    0.9325   -0.9287 H         1 <0>         0.0605
     52 H22         2.9917   -2.3080    1.2104 H         1 <0>         0.0592
     53 H23         4.7622   -2.1251    1.1945 H         1 <0>         0.0624
     54 H24         3.7562   -0.9694    2.1003 H         1 <0>         0.0581
     55 H25         2.3431    6.3114    1.0567 H         1 <0>         0.0929
     56 H26         2.0479    5.4784   -0.4884 H         1 <0>         0.0818
     57 H27         2.6266    7.1617   -0.4812 H         1 <0>         0.0915
@<TRIPOS>BOND
     1    1    2 1
     2    1   32 1
     3    1   33 1
     4    1   34 1
     5    2    8 1
     6    2    3 2
     7    3    4 1
     8    3   31 1
     9    4    5 2
    10    5    6 1
    11    5   10 1
    12    6    7 1
    13    6    8 am
    14    8    9 2
    15   10   14 1
    16   10   11 1
    17   11   12 2
    18   11   18 1
    19   12   13 1
    20   12   35 1
    21   13   14 2
    22   13   15 1
    23   15   17 1
    24   15   16 1
    25   15   36 1
    26   16   17 1
    27   16   37 1
    28   16   38 1
    29   17   39 1
    30   17   40 1
    31   18   19 am
    32   18   41 1
    33   19   20 2
    34   19   21 1
    35   21   26 ar
    36   21   22 ar
    37   22   23 ar
    38   22   42 1
    39   23   24 ar
    40   23   43 1
    41   24   25 ar
    42   24   27 1
    43   25   26 ar
    44   25   44 1
    45   26   45 1
    46   27   28 1
    47   27   29 1
    48   27   30 1
    49   28   46 1
    50   28   47 1
    51   28   48 1
    52   29   49 1
    53   29   50 1
    54   29   51 1
    55   30   52 1
    56   30   53 1
    57   30   54 1
    58   31   55 1
    59   31   56 1
    60   31   57 1
@<TRIPOS>MOLECULE
ZINC24090361
   60    63     0     0     0
SMALL
USER_CHARGES
ethyl 4-[(1S)-2-(1-adamantylcarbamoylamino)-1-methyl-2-oxo-ethoxy]benzoate
@<TRIPOS>ATOM
      1 C1         -5.6725   -6.4236    3.7246 C.3       1 <0>        -0.1560
      2 C2         -4.2253   -5.9503    3.8745 C.3       1 <0>         0.0614
      3 O1         -4.0916   -4.6174    3.3143 O.3       1 <0>        -0.3547
      4 C3         -2.8698   -4.0515    3.3668 C.2       1 <0>         0.5135
      5 O2         -1.9416   -4.6553    3.8670 O.2       1 <0>        -0.5099
      6 C4         -2.6593   -2.6994    2.8171 C.ar      1 <0>        -0.1677
      7 C5         -1.3926   -2.1105    2.8706 C.ar      1 <0>        -0.0093
      8 C6         -1.2002   -0.8481    2.3558 C.ar      1 <0>        -0.2272
      9 C7         -2.2633   -0.1594    1.7831 C.ar      1 <0>         0.1690
     10 C8         -3.5258   -0.7392    1.7327 C.ar      1 <0>        -0.1599
     11 C9         -3.7257   -2.0032    2.2408 C.ar      1 <0>        -0.0177
     12 O3         -2.0695    1.0846    1.2770 O.3       1 <0>        -0.2832
     13 C10        -0.7813    1.6714    1.4731 C.3       1 <0>         0.0667
     14 H1         -0.4419    1.3430    2.4666 H         1 <0>         0.1090
     15 C11         0.1666    1.2018    0.3678 C.3       1 <0>        -0.1796
     16 C12        -0.9011    3.1729    1.4278 C.2       1 <0>         0.5240
     17 O4         -1.9643    3.6883    1.1559 O.2       1 <0>        -0.4417
     18 N1          0.1736    3.9429    1.6897 N.am      1 <0>        -0.7015
     19 C13         0.0665    5.2858    1.6492 C.2       1 <0>         0.6992
     20 O5         -0.9993    5.8024    1.3766 O.2       1 <0>        -0.5257
     21 N2          1.1412    6.0557    1.9110 N.am      1 <0>        -0.7417
     22 C14         1.0247    7.5154    1.8670 C.3       1 <0>         0.2046
     23 C15         0.5910    7.9504    0.4658 C.3       1 <0>        -0.1249
     24 C16         0.4693    9.4749    0.4198 C.3       1 <0>        -0.0825
     25 C17         1.8232   10.1048    0.7531 C.3       1 <0>        -0.1122
     26 C18         2.2570    9.6698    2.1543 C.3       1 <0>        -0.0805
     27 C19         2.3786    8.1453    2.2003 C.3       1 <0>        -0.1130
     28 C20         1.2153   10.1294    3.1763 C.3       1 <0>        -0.1122
     29 C21        -0.1386    9.4994    2.8431 C.3       1 <0>        -0.0824
     30 C22        -0.5724    9.9344    1.4418 C.3       1 <0>        -0.1112
     31 C23        -0.0170    7.9750    2.8890 C.3       1 <0>        -0.1253
     32 H2         -5.7738   -7.4334    4.1490 H         1 <0>         0.0825
     33 H3         -5.9427   -6.4451    2.6585 H         1 <0>         0.0683
     34 H4         -6.3414   -5.7326    4.2585 H         1 <0>         0.0683
     35 H5         -3.9551   -5.9288    4.9406 H         1 <0>         0.0723
     36 H6         -3.5564   -6.6413    3.3406 H         1 <0>         0.0724
     37 H7         -0.5659   -2.6451    3.3147 H         1 <0>         0.1427
     38 H8         -0.2219   -0.3924    2.3967 H         1 <0>         0.1411
     39 H9         -4.3500   -0.1990    1.2909 H         1 <0>         0.1443
     40 H10        -4.7058   -2.4547    2.1972 H         1 <0>         0.1478
     41 H11         1.1582    1.6535    0.5188 H         1 <0>         0.0836
     42 H12        -0.2309    1.5085   -0.6109 H         1 <0>         0.0814
     43 H13         0.2540    0.1058    0.4009 H         1 <0>         0.0838
     44 H14         1.1382    3.4753    1.9365 H         1 <0>         0.4314
     45 H15         2.1058    5.5881    2.1577 H         1 <0>         0.4150
     46 H16         1.3400    7.6200   -0.2689 H         1 <0>         0.0591
     47 H17        -0.3823    7.4975    0.2261 H         1 <0>         0.0867
     48 H18         0.1574    9.7877   -0.5876 H         1 <0>         0.0727
     49 H19         2.5721    9.7744    0.0183 H         1 <0>         0.0627
     50 H20         1.7358   11.2008    0.7201 H         1 <0>         0.0656
     51 H21         3.2304   10.1227    2.3939 H         1 <0>         0.0759
     52 H22         2.6904    7.8326    3.2078 H         1 <0>         0.0694
     53 H23         3.1276    7.8149    1.4656 H         1 <0>         0.0695
     54 H24         1.5272    9.8167    4.1837 H         1 <0>         0.0627
     55 H25         1.1278   11.2254    3.1432 H         1 <0>         0.0656
     56 H26        -0.8875    9.8297    3.5780 H         1 <0>         0.0726
     57 H27        -0.6599   11.0304    1.4088 H         1 <0>         0.0634
     58 H28        -1.5458    9.4815    1.2022 H         1 <0>         0.0657
     59 H29        -0.9904    7.5222    2.6494 H         1 <0>         0.0867
     60 H30         0.2948    7.6622    3.8964 H         1 <0>         0.0591
@<TRIPOS>BOND
     1    1    2 1
     2    1   32 1
     3    1   33 1
     4    1   34 1
     5    2    3 1
     6    2   35 1
     7    2   36 1
     8    3    4 1
     9    4    5 2
    10    4    6 1
    11    6   11 ar
    12    6    7 ar
    13    7    8 ar
    14    7   37 1
    15    8    9 ar
    16    8   38 1
    17    9   10 ar
    18    9   12 1
    19   10   11 ar
    20   10   39 1
    21   11   40 1
    22   12   13 1
    23   13   14 1
    24   13   15 1
    25   13   16 1
    26   15   41 1
    27   15   42 1
    28   15   43 1
    29   16   17 2
    30   16   18 am
    31   18   19 am
    32   18   44 1
    33   19   20 2
    34   19   21 am
    35   21   22 1
    36   21   45 1
    37   22   27 1
    38   22   31 1
    39   22   23 1
    40   23   24 1
    41   23   46 1
    42   23   47 1
    43   24   30 1
    44   24   25 1
    45   24   48 1
    46   25   26 1
    47   25   49 1
    48   25   50 1
    49   26   27 1
    50   26   28 1
    51   26   51 1
    52   27   52 1
    53   27   53 1
    54   28   29 1
    55   28   54 1
    56   28   55 1
    57   29   30 1
    58   29   31 1
    59   29   56 1
    60   30   57 1
    61   30   58 1
    62   31   59 1
    63   31   60 1
@<TRIPOS>MOLECULE
ZINC40700652
   57    60     0     0     0
SMALL
USER_CHARGES

@<TRIPOS>ATOM
      1 C1          0.4842    0.5530    1.7879 C.3       1 <0>        -0.1322
      2 C2          0.2797   -0.8868    1.2922 C.3       1 <0>        -0.0691
      3 C3          1.1885   -1.2286    0.0797 C.3       1 <0>        -0.1259
      4 C4          0.4357   -2.4681   -0.4659 C.3       1 <0>         0.1527
      5 H1          0.7088   -2.6815   -1.5072 H         1 <0>         0.1003
      6 C5          0.7546   -3.6362    0.4642 C.3       1 <0>        -0.1167
      7 C6          0.4206   -3.3691    1.9208 C.3       1 <0>        -0.0509
      8 C7          0.5550   -1.9280    2.3757 C.3       1 <0>        -0.0959
      9 C8         -0.9876   -3.8935    2.2362 C.3       1 <0>        -0.1436
     10 C9          1.4011   -4.2115    2.7750 C.3       1 <0>        -0.1477
     11 N1         -0.9956   -2.1274   -0.3419 N.pl3     1 <0>        -0.5914
     12 C10        -1.1356   -1.1138    0.7149 C.3       1 <0>         0.1177
     13 C11        -2.0311   -2.6619   -1.0984 C.ar      1 <0>         0.4441
     14 C12        -3.3612   -2.3536   -0.7995 C.ar      1 <0>         0.0335
     15 C13        -4.3611   -2.9167   -1.5901 C.ar      1 <0>         0.3208
     16 N2         -4.0152   -3.7202   -2.5917 N.ar      1 <0>        -0.5742
     17 C14        -2.7493   -3.9861   -2.8410 C.ar      1 <0>         0.3360
     18 N3         -1.7722   -3.4707   -2.1220 N.ar      1 <0>        -0.5646
     19 O1         -5.6678   -2.6496   -1.3414 O.3       1 <0>        -0.2463
     20 C15        -6.6031   -3.3193   -2.0612 C.ar      1 <0>         0.1393
     21 C16        -6.9612   -4.6130   -1.6992 C.ar      1 <0>        -0.1292
     22 C17        -7.9097   -5.2959   -2.4268 C.ar      1 <0>        -0.0381
     23 C18        -8.5129   -4.6867   -3.5310 C.ar      1 <0>        -0.1269
     24 C19        -8.1500   -3.3857   -3.8916 C.ar      1 <0>        -0.0458
     25 C20        -7.2047   -2.7077   -3.1552 C.ar      1 <0>        -0.1269
     26 C21        -9.5291   -5.4146   -4.3136 C.2       1 <0>         0.5088
     27 O2         -9.8430   -6.5455   -3.9989 O.2       1 <0>        -0.5016
     28 O3        -10.1094   -4.8257   -5.3776 O.3       1 <0>        -0.3494
     29 C22       -11.0852   -5.5892   -6.0896 C.3       1 <0>         0.0341
     30 N4         -3.6810   -1.5004    0.2681 N.pl3     1 <0>        -0.8834
     31 H2          1.5149    0.6803    2.1190 H         1 <0>         0.0656
     32 H3          0.2746    1.2499    0.9764 H         1 <0>         0.0616
     33 H4         -0.1917    0.7503    2.6199 H         1 <0>         0.0611
     34 H5          1.1992   -0.4174   -0.6482 H         1 <0>         0.0756
     35 H6          2.1982   -1.4836    0.3993 H         1 <0>         0.0886
     36 H7          0.2067   -4.5271    0.1269 H         1 <0>         0.0656
     37 H8          1.8261   -3.8747    0.3827 H         1 <0>         0.0700
     38 H9          1.5725   -1.7720    2.7680 H         1 <0>         0.0658
     39 H10        -0.1320   -1.7544    3.2188 H         1 <0>         0.0631
     40 H11        -1.0262   -4.9665    2.0486 H         1 <0>         0.0499
     41 H12        -1.2217   -3.6990    3.2829 H         1 <0>         0.0507
     42 H13        -1.7145   -3.3872    1.6012 H         1 <0>         0.0596
     43 H14         2.4255   -3.9112    2.5544 H         1 <0>         0.0544
     44 H15         1.1944   -4.0479    3.8327 H         1 <0>         0.0537
     45 H16         1.2734   -5.2679    2.5389 H         1 <0>         0.0539
     46 H17        -1.8217   -1.4461    1.4866 H         1 <0>         0.0844
     47 H18        -1.5058   -0.1819    0.2766 H         1 <0>         0.0589
     48 H19        -2.5043   -4.6433   -3.6624 H         1 <0>         0.1987
     49 H20        -6.4944   -5.0830   -0.8462 H         1 <0>         0.1359
     50 H21        -8.1870   -6.3009   -2.1452 H         1 <0>         0.1446
     51 H22        -8.6137   -2.9116   -4.7440 H         1 <0>         0.1466
     52 H23        -6.9270   -1.7010   -3.4305 H         1 <0>         0.1384
     53 H24       -11.9026   -5.8510   -5.4177 H         1 <0>         0.0624
     54 H25       -11.4724   -4.9994   -6.9204 H         1 <0>         0.1050
     55 H26       -10.6248   -6.4995   -6.4736 H         1 <0>         0.0627
     56 H27        -3.0888   -0.7671    0.4972 H         1 <0>         0.3972
     57 H28        -4.4943   -1.6441    0.7769 H         1 <0>         0.3981
@<TRIPOS>BOND
     1    1    2 1
     2    1   31 1
     3    1   32 1
     4    1   33 1
     5    2    8 1
     6    2   12 1
     7    2    3 1
     8    3    4 1
     9    3   34 1
    10    3   35 1
    11    4    5 1
    12    4    6 1
    13    4   11 1
    14    6    7 1
    15    6   36 1
    16    6   37 1
    17    7    8 1
    18    7    9 1
    19    7   10 1
    20    8   38 1
    21    8   39 1
    22    9   40 1
    23    9   41 1
    24    9   42 1
    25   10   43 1
    26   10   44 1
    27   10   45 1
    28   11   12 1
    29   11   13 1
    30   12   46 1
    31   12   47 1
    32   13   18 ar
    33   13   14 ar
    34   14   15 ar
    35   14   30 1
    36   15   16 ar
    37   15   19 1
    38   16   17 ar
    39   17   18 ar
    40   17   48 1
    41   19   20 1
    42   20   25 ar
    43   20   21 ar
    44   21   22 ar
    45   21   49 1
    46   22   23 ar
    47   22   50 1
    48   23   24 ar
    49   23   26 1
    50   24   25 ar
    51   24   51 1
    52   25   52 1
    53   26   27 2
    54   26   28 1
    55   28   29 1
    56   29   53 1
    57   29   54 1
    58   29   55 1
    59   30   56 1
    60   30   57 1
@<TRIPOS>MOLECULE
ZINC58414422
   46    49     0     0     0
SMALL
USER_CHARGES

@<TRIPOS>ATOM
      1 C1         -0.2135    0.6593   -0.3900 C.3       1 <0>        -0.1465
      2 C2         -0.0078   -0.8535   -0.2895 C.3       1 <0>        -0.0781
      3 C3          0.7199   -1.1776    0.9897 C.2       1 <0>         0.1898
      4 C4          0.0155   -1.5325    2.1022 C.2       1 <0>        -0.2928
      5 C5          0.7183   -1.8315    3.2862 C.2       1 <0>         0.5260
      6 O1          0.1208   -2.1529    4.3000 O.2       1 <0>        -0.5380
      7 N1          2.0664   -1.7555    3.2764 N.am      1 <0>        -0.6303
      8 H1          2.5714   -1.9571    4.0797 H         1 <0>         0.4158
      9 C6          2.7148   -1.3949    2.1332 C.2       1 <0>         0.4442
     10 N2          2.0497   -1.1222    1.0299 N.2       1 <0>        -0.5184
     11 C7          4.1901   -1.3139    2.1302 C.ar      1 <0>        -0.0566
     12 C8          4.9106   -1.6109    3.2893 C.ar      1 <0>        -0.1040
     13 C9          6.2882   -1.5349    3.2834 C.ar      1 <0>        -0.0968
     14 C10         6.9600   -1.1654    2.1328 C.ar      1 <0>        -0.1117
     15 C11         6.2525   -0.8680    0.9744 C.ar      1 <0>         0.1406
     16 C12         4.8685   -0.9463    0.9679 C.ar      1 <0>        -0.0544
     17 N3          6.9376   -0.4945   -0.1874 N.am      1 <0>        -0.6686
     18 C13         6.3847    0.3901   -1.0409 C.2       1 <0>         0.5180
     19 O2          5.3388    0.9345   -0.7567 O.2       1 <0>        -0.4764
     20 C14         7.0659    0.7026   -2.3483 C.3       1 <0>         0.0288
     21 H2          7.2374   -0.2072   -2.9236 H         1 <0>         0.1254
     22 C15         8.3906    1.4668   -2.1134 C.3       1 <0>        -0.1417
     23 C16         8.4119    2.4527   -3.2661 C.2       1 <0>         0.1674
     24 N4          7.2220    2.5063   -3.7748 N.2       1 <0>        -0.2601
     25 O3          6.3036    1.6594   -3.1114 O.3       1 <0>        -0.1521
     26 C17         9.5783    3.2137   -3.7251 C.2       1 <0>        -0.1304
     27 C18         9.6709    4.1291   -4.7590 C.2       1 <0>        -0.0856
     28 C19        10.8872    4.7208   -5.0015 C.2       1 <0>        -0.1446
     29 C20        11.9544    4.3911   -4.2238 C.2       1 <0>        -0.1062
     30 S1         11.2472    3.2068   -3.0909 S.3       1 <0>         0.1599
     31 Cl1        13.5862    4.9775   -4.3083 Cl        1 <0>         0.0319
     32 H3          0.7554    1.1587   -0.3866 H         1 <0>         0.0632
     33 H4         -0.7398    0.8938   -1.3152 H         1 <0>         0.0675
     34 H5         -0.8025    1.0032    0.4603 H         1 <0>         0.0565
     35 H6         -0.9766   -1.3529   -0.2929 H         1 <0>         0.0872
     36 H7          0.5812   -1.1973   -1.1398 H         1 <0>         0.0894
     37 H8         -1.0630   -1.5833    2.0761 H         1 <0>         0.1576
     38 H9          4.3895   -1.8996    4.1901 H         1 <0>         0.1285
     39 H10         6.8436   -1.7646    4.1807 H         1 <0>         0.1409
     40 H11         8.0384   -1.1074    2.1346 H         1 <0>         0.1366
     41 H12         4.3172   -0.7198    0.0673 H         1 <0>         0.1591
     42 H13         7.8104   -0.8722   -0.3784 H         1 <0>         0.4157
     43 H14         8.3712    1.9899   -1.1573 H         1 <0>         0.1157
     44 H15         9.2429    0.7895   -2.1678 H         1 <0>         0.1200
     45 H16         8.8079    4.3722   -5.3612 H         1 <0>         0.1542
     46 H17        10.9952    5.4393   -5.8006 H         1 <0>         0.1532
@<TRIPOS>BOND
     1    1    2 1
     2    1   32 1
     3    1   33 1
     4    1   34 1
     5    2    3 1
     6    2   35 1
     7    2   36 1
     8    3   10 1
     9    3    4 2
    10    4    5 1
    11    4   37 1
    12    5    6 2
    13    5    7 am
    14    7    8 1
    15    7    9 1
    16    9   10 2
    17    9   11 1
    18   11   16 ar
    19   11   12 ar
    20   12   13 ar
    21   12   38 1
    22   13   14 ar
    23   13   39 1
    24   14   15 ar
    25   14   40 1
    26   15   16 ar
    27   15   17 1
    28   16   41 1
    29   17   18 am
    30   17   42 1
    31   18   19 2
    32   18   20 1
    33   20   21 1
    34   20   25 1
    35   20   22 1
    36   22   23 1
    37   22   43 1
    38   22   44 1
    39   23   24 2
    40   23   26 1
    41   24   25 1
    42   26   30 1
    43   26   27 2
    44   27   28 1
    45   27   45 1
    46   28   29 2
    47   28   46 1
    48   29   30 1
    49   29   31 1
@<TRIPOS>MOLECULE
ZINC09594310
   53    57     0     0     0
SMALL
USER_CHARGES
2-(1-cyclohexylbenzoimidazol-2-yl)sulfanyl-N-(2-oxo-1,3-dihydrobenzoimidazol-5-yl)-acetamide
@<TRIPOS>ATOM
      1 C1          1.2051   -0.6720   -0.0589 C.ar      1 <0>        -0.1252
      2 C2          2.4002    0.0318   -0.0615 C.ar      1 <0>        -0.0997
      3 C3          2.3988    1.4115   -0.0433 C.ar      1 <0>        -0.1103
      4 C4          1.1956    2.1003   -0.0222 C.ar      1 <0>         0.0573
      5 C5         -0.0177    1.3926   -0.0200 C.ar      1 <0>         0.0555
      6 C6          0.0010   -0.0044   -0.0387 C.ar      1 <0>        -0.0662
      7 N1         -1.0177    2.3123   -0.0038 N.2       1 <0>        -0.4962
      8 C7         -0.5058    3.5186    0.0127 C.2       1 <0>         0.2459
      9 N2          0.8584    3.4438   -0.0013 N.pl3     1 <0>        -0.4668
     10 C8          1.7908    4.5738    0.0052 C.3       1 <0>         0.1390
     11 C9          1.5706    5.4095    1.2678 C.3       1 <0>        -0.1363
     12 C10         2.5444    6.5896    1.2745 C.3       1 <0>        -0.1139
     13 C11         2.3012    7.4585    0.0389 C.3       1 <0>        -0.1261
     14 C12         2.5215    6.6228   -1.2236 C.3       1 <0>        -0.1138
     15 C13         1.5477    5.4427   -1.2304 C.3       1 <0>        -0.1362
     16 S1         -1.4377    5.0137    0.0423 S.3       1 <0>         0.0834
     17 C14        -3.1167    4.3375    0.0489 C.3       1 <0>        -0.1570
     18 C15        -4.1133    5.4677    0.0740 C.2       1 <0>         0.5355
     19 O1         -3.7265    6.6172    0.0863 O.2       1 <0>        -0.5043
     20 N3         -5.4344    5.2010    0.0829 N.am      1 <0>        -0.6622
     21 C16        -6.3591    6.2464    0.2037 C.ar      1 <0>         0.1522
     22 C17        -7.5421    6.0483    0.9067 C.ar      1 <0>        -0.1268
     23 C18        -8.4549    7.0758    1.0338 C.ar      1 <0>        -0.0835
     24 C19        -8.1972    8.3067    0.4492 C.ar      1 <0>         0.0776
     25 C20        -7.0124    8.5072   -0.2621 C.ar      1 <0>         0.1094
     26 C21        -6.0953    7.4749   -0.3830 C.ar      1 <0>        -0.1067
     27 N4         -7.0373    9.8210   -0.7240 N.am      1 <0>        -0.6399
     28 H1         -6.3459   10.2501   -1.2520 H         1 <0>         0.4372
     29 C22        -8.1841   10.3942   -0.3132 C.2       1 <0>         0.6850
     30 O2         -8.5179   11.5405   -0.5484 O.2       1 <0>        -0.5531
     31 N5         -8.9058    9.5068    0.3969 N.am      1 <0>        -0.6410
     32 H2         -9.7709    9.6735    0.8026 H         1 <0>         0.4366
     33 H3          1.2190   -1.7518   -0.0733 H         1 <0>         0.1312
     34 H4          3.3380   -0.5035   -0.0775 H         1 <0>         0.1314
     35 H5          3.3328    1.9537   -0.0450 H         1 <0>         0.1213
     36 H6         -0.9259   -0.5587   -0.0375 H         1 <0>         0.1296
     37 H7          2.8147    4.2001   -0.0092 H         1 <0>         0.1027
     38 H8          0.5468    5.7832    1.2821 H         1 <0>         0.0823
     39 H9          1.7438    4.7904    2.1480 H         1 <0>         0.0715
     40 H10         3.5682    6.2159    1.2602 H         1 <0>         0.0658
     41 H11         2.3875    7.1849    2.1740 H         1 <0>         0.0735
     42 H12         2.9950    8.2992    0.0437 H         1 <0>         0.0693
     43 H13         1.2774    7.8322    0.0533 H         1 <0>         0.0685
     44 H14         3.5453    6.2491   -1.2380 H         1 <0>         0.0658
     45 H15         2.3482    7.2418   -2.1039 H         1 <0>         0.0734
     46 H16         1.7046    4.8473   -2.1299 H         1 <0>         0.0715
     47 H17         0.5239    5.8164   -1.2160 H         1 <0>         0.0822
     48 H18        -3.2702    3.7376   -0.8481 H         1 <0>         0.1311
     49 H19        -3.2533    3.7129    0.9316 H         1 <0>         0.1315
     50 H20        -5.7449    4.2853    0.0055 H         1 <0>         0.4186
     51 H21        -7.7456    5.0885    1.3583 H         1 <0>         0.1402
     52 H22        -9.3709    6.9201    1.5844 H         1 <0>         0.1394
     53 H23        -5.1782    7.6269   -0.9328 H         1 <0>         0.1496
@<TRIPOS>BOND
     1    1    6 ar
     2    1    2 ar
     3    1   33 1
     4    2    3 ar
     5    2   34 1
     6    3    4 ar
     7    3   35 1
     8    4    9 1
     9    4    5 ar
    10    5    6 ar
    11    5    7 1
    12    6   36 1
    13    7    8 2
    14    8    9 1
    15    8   16 1
    16    9   10 1
    17   10   15 1
    18   10   11 1
    19   10   37 1
    20   11   12 1
    21   11   38 1
    22   11   39 1
    23   12   13 1
    24   12   40 1
    25   12   41 1
    26   13   14 1
    27   13   42 1
    28   13   43 1
    29   14   15 1
    30   14   44 1
    31   14   45 1
    32   15   46 1
    33   15   47 1
    34   16   17 1
    35   17   18 1
    36   17   48 1
    37   17   49 1
    38   18   19 2
    39   18   20 am
    40   20   21 1
    41   20   50 1
    42   21   26 ar
    43   21   22 ar
    44   22   23 ar
    45   22   51 1
    46   23   24 ar
    47   23   52 1
    48   24   31 1
    49   24   25 ar
    50   25   26 ar
    51   25   27 1
    52   26   53 1
    53   27   28 1
    54   27   29 am
    55   29   30 2
    56   29   31 am
    57   31   32 1
@<TRIPOS>MOLECULE
ZINC20608311
   50    53     0     0     0
SMALL
USER_CHARGES
2-[[5-(N'-cyclohexylidenehydrazino)-4H-1,2,4-triazol-3-yl]sulfanyl]-N-(1-naphthyl)acetamide
@<TRIPOS>ATOM
      1 C1         11.4241    7.3774    1.7963 C.ar      1 <0>        -0.1155
      2 C2         10.0381    7.4394    1.9263 C.ar      1 <0>        -0.1138
      3 C3          9.2341    6.5439    1.2896 C.ar      1 <0>        -0.1094
      4 C4          9.8061    5.5454    0.4858 C.ar      1 <0>        -0.0624
      5 C5         11.2154    5.4787    0.3564 C.ar      1 <0>        -0.0365
      6 C6         12.0136    6.4204    1.0289 C.ar      1 <0>        -0.1031
      7 C7         11.7897    4.4770   -0.4444 C.ar      1 <0>        -0.1220
      8 C8         10.9923    3.5778   -1.0844 C.ar      1 <0>        -0.0928
      9 C9          9.6071    3.6303   -0.9609 C.ar      1 <0>        -0.1215
     10 C10         9.0050    4.5970   -0.1847 C.ar      1 <0>         0.1574
     11 N1          7.6145    4.6409   -0.0675 N.am      1 <0>        -0.6765
     12 C11         6.9012    3.4974   -0.0744 C.2       1 <0>         0.5384
     13 O1          7.4714    2.4269   -0.0793 O.2       1 <0>        -0.5006
     14 C12         5.3950    3.5488   -0.0759 C.3       1 <0>        -0.1639
     15 S1          4.7324    1.8602   -0.0855 S.3       1 <0>         0.1151
     16 C13         2.9852    2.0879   -0.0864 C.2       1 <0>         0.2094
     17 N2          2.0460    1.0958   -0.0927 N.2       1 <0>        -0.5549
     18 C14         0.8114    1.6827   -0.0906 C.2       1 <0>         0.5426
     19 N3          0.9807    2.9824   -0.0886 N.pl3     1 <0>        -0.4771
     20 N4          2.3579    3.2397   -0.0807 N.2       1 <0>        -0.3306
     21 N5         -0.4078    1.0185   -0.0958 N.pl3     1 <0>        -0.5663
     22 N6         -1.6034    1.7489   -0.0987 N.2       1 <0>        -0.2592
     23 C15        -2.7249    1.1406   -0.2038 C.2       1 <0>         0.1185
     24 C16        -2.7782   -0.3509   -0.4504 C.3       1 <0>        -0.1210
     25 C17        -3.7097   -0.9804    0.5970 C.3       1 <0>        -0.1139
     26 C18        -5.0711   -0.2849    0.5468 C.3       1 <0>        -0.1255
     27 C19        -4.9167    1.1858    0.9379 C.3       1 <0>        -0.1171
     28 C20        -4.0306    1.8959   -0.0909 C.3       1 <0>        -0.0625
     29 H1         12.0397    8.0997    2.3119 H         1 <0>         0.1244
     30 H2          9.5952    8.2092    2.5408 H         1 <0>         0.1240
     31 H3          8.1614    6.6039    1.3994 H         1 <0>         0.1219
     32 H4         13.0891    6.3849    0.9368 H         1 <0>         0.1296
     33 H5         12.8628    4.4206   -0.5525 H         1 <0>         0.1289
     34 H6         11.4421    2.8114   -1.6982 H         1 <0>         0.1282
     35 H7          8.9971    2.9052   -1.4790 H         1 <0>         0.1355
     36 H8          7.1011    5.6088    0.0305 H         1 <0>         0.4369
     37 H9          5.0452    4.0749    0.8246 H         1 <0>         0.1264
     38 H10         5.0473    4.0843   -0.9717 H         1 <0>         0.1278
     39 H11        -0.4351   -0.0812   -0.0976 H         1 <0>         0.4339
     40 H12        -3.1651   -0.5416   -1.4623 H         1 <0>         0.0979
     41 H13        -1.7670   -0.7741   -0.3587 H         1 <0>         0.0694
     42 H14        -3.8353   -2.0513    0.3795 H         1 <0>         0.0746
     43 H15        -3.2709   -0.8586    1.5983 H         1 <0>         0.0667
     44 H16        -5.4782   -0.3491   -0.4731 H         1 <0>         0.0692
     45 H17        -5.7605   -0.7773    1.2485 H         1 <0>         0.0708
     46 H18        -5.9068    1.6645    0.9626 H         1 <0>         0.0783
     47 H19        -4.4516    1.2539    1.9324 H         1 <0>         0.0674
     48 H20        -3.8305    2.9274    0.2347 H         1 <0>         0.0860
     49 H21        -4.5313    1.9112   -1.0702 H         1 <0>         0.0929
     50 H22         0.1071    3.6508   -0.0929 H         1 <0>         0.4740
@<TRIPOS>BOND
     1    1    6 ar
     2    1    2 ar
     3    1   29 1
     4    2    3 ar
     5    2   30 1
     6    3    4 ar
     7    3   31 1
     8    4   10 ar
     9    4    5 ar
    10    5    6 ar
    11    5    7 ar
    12    6   32 1
    13    7    8 ar
    14    7   33 1
    15    8    9 ar
    16    8   34 1
    17    9   10 ar
    18    9   35 1
    19   10   11 1
    20   11   12 am
    21   11   36 1
    22   12   13 2
    23   12   14 1
    24   14   15 1
    25   14   37 1
    26   14   38 1
    27   15   16 1
    28   16   20 2
    29   16   17 1
    30   17   18 2
    31   18   19 1
    32   18   21 1
    33   19   20 1
    34   19   50 1
    35   21   22 1
    36   21   39 1
    37   22   23 2
    38   23   28 1
    39   23   24 1
    40   24   25 1
    41   24   40 1
    42   24   41 1
    43   25   26 1
    44   25   42 1
    45   25   43 1
    46   26   27 1
    47   26   44 1
    48   26   45 1
    49   27   28 1
    50   27   46 1
    51   27   47 1
    52   28   48 1
    53   28   49 1
@<TRIPOS>MOLECULE
ZINC01047712
   60    62     0     0     0
SMALL
USER_CHARGES

@<TRIPOS>ATOM
      1 C1         -2.1272    1.5819   11.4794 C.3       1 <0>        -0.1107
      2 C2         -1.6339    0.1865   11.7636 C.ar      1 <0>        -0.0958
      3 C3         -1.9683   -0.4367   12.9498 C.ar      1 <0>        -0.1124
      4 C4         -1.5160   -1.7170   13.2114 C.ar      1 <0>        -0.1156
      5 C5         -0.7277   -2.3773   12.2868 C.ar      1 <0>        -0.1118
      6 C6         -0.3894   -1.7594   11.0989 C.ar      1 <0>        -0.0686
      7 C7         -0.8472   -0.4760   10.8305 C.ar      1 <0>         0.1475
      8 N1         -0.5118    0.1503    9.6249 N.am      1 <0>        -0.6819
      9 C8         -0.6326   -0.5190    8.4613 C.2       1 <0>         0.7123
     10 O1         -1.0926   -1.6445    8.4523 O.2       1 <0>        -0.5415
     11 N2         -0.2435    0.0592    7.3078 N.am      1 <0>        -0.5227
     12 N3          0.2866    1.3560    7.3181 N.am      1 <0>        -0.5172
     13 C9          0.6757    1.9342    6.1645 C.2       1 <0>         0.6016
     14 O2          0.6494    1.2997    5.1272 O.2       1 <0>        -0.5260
     15 C10         1.1324    3.3331    6.1601 C.2       1 <0>        -0.0378
     16 C11         1.3034    4.1547    7.2608 C.2       1 <0>        -0.1789
     17 C12         1.7468    5.3751    6.7462 C.2       1 <0>         0.0438
     18 N4          1.8233    5.2580    5.4450 N.2       1 <0>        -0.2527
     19 N5          1.4782    4.0792    5.0694 N.pl3     1 <0>        -0.2408
     20 C13         1.4549    3.6081    3.6824 C.3       1 <0>         0.1521
     21 C14         0.1625    4.0281    3.0309 C.ar      1 <0>        -0.1197
     22 C15        -0.9578    3.2252    3.1370 C.ar      1 <0>        -0.0927
     23 C16        -2.1433    3.6104    2.5395 C.ar      1 <0>        -0.1255
     24 C17        -2.2086    4.7987    1.8361 C.ar      1 <0>        -0.1051
     25 C18        -1.0886    5.6020    1.7308 C.ar      1 <0>        -0.1248
     26 C19         0.0958    5.2188    2.3320 C.ar      1 <0>        -0.0887
     27 C20         2.0776    6.6080    7.5471 C.3       1 <0>         0.0164
     28 C21         3.4227    6.4140    8.2499 C.3       1 <0>        -0.1383
     29 C22         2.1603    7.8164    6.6123 C.3       1 <0>        -0.1365
     30 C23         0.9857    6.8455    8.5921 C.3       1 <0>        -0.1392
     31 C24         0.4705   -2.4793   10.0922 C.3       1 <0>        -0.1050
     32 H1         -3.0914    1.5303   10.9737 H         1 <0>         0.0731
     33 H2         -2.2374    2.1263   12.4172 H         1 <0>         0.0728
     34 H3         -1.4096    2.0981   10.8417 H         1 <0>         0.0570
     35 H4         -2.5835    0.0765   13.6741 H         1 <0>         0.1273
     36 H5         -1.7786   -2.2021   14.1399 H         1 <0>         0.1259
     37 H6         -0.3760   -3.3772   12.4940 H         1 <0>         0.1269
     38 H7         -0.1924    1.0662    9.6266 H         1 <0>         0.3981
     39 H8         -0.3304   -0.4226    6.4703 H         1 <0>         0.4477
     40 H9          0.3735    1.8377    8.1555 H         1 <0>         0.4219
     41 H10         1.1304    3.9052    8.2972 H         1 <0>         0.1579
     42 H11         2.2938    4.0409    3.1375 H         1 <0>         0.1084
     43 H12         1.5333    2.5211    3.6665 H         1 <0>         0.1308
     44 H13        -0.9068    2.2969    3.6865 H         1 <0>         0.1297
     45 H14        -3.0184    2.9829    2.6218 H         1 <0>         0.1244
     46 H15        -3.1346    5.0993    1.3687 H         1 <0>         0.1245
     47 H16        -1.1395    6.5302    1.1810 H         1 <0>         0.1257
     48 H17         0.9699    5.8482    2.2528 H         1 <0>         0.1258
     49 H18         4.2006    6.2448    7.5054 H         1 <0>         0.0570
     50 H19         3.6619    7.3057    8.8292 H         1 <0>         0.0644
     51 H20         3.3638    5.5531    8.9159 H         1 <0>         0.0577
     52 H21         1.2021    7.9547    6.1116 H         1 <0>         0.0562
     53 H22         2.3996    8.7082    7.1916 H         1 <0>         0.0587
     54 H23         2.9382    7.6473    5.8678 H         1 <0>         0.0613
     55 H24         0.9267    5.9846    9.2581 H         1 <0>         0.0580
     56 H25         1.2249    7.7373    9.1714 H         1 <0>         0.0650
     57 H26         0.0274    6.9837    8.0914 H         1 <0>         0.0575
     58 H27        -0.1523   -3.1393    9.4884 H         1 <0>         0.0918
     59 H28         0.9609   -1.7510    9.4463 H         1 <0>         0.0521
     60 H29         1.2248   -3.0683   10.6139 H         1 <0>         0.0586
@<TRIPOS>BOND
     1    1    2 1
     2    1   32 1
     3    1   33 1
     4    1   34 1
     5    2    7 ar
     6    2    3 ar
     7    3    4 ar
     8    3   35 1
     9    4    5 ar
    10    4   36 1
    11    5    6 ar
    12    5   37 1
    13    6    7 ar
    14    6   31 1
    15    7    8 1
    16    8    9 am
    17    8   38 1
    18    9   10 2
    19    9   11 am
    20   11   12 1
    21   11   39 1
    22   12   13 am
    23   12   40 1
    24   13   14 2
    25   13   15 1
    26   15   19 1
    27   15   16 2
    28   16   17 1
    29   16   41 1
    30   17   18 2
    31   17   27 1
    32   18   19 1
    33   19   20 1
    34   20   21 1
    35   20   42 1
    36   20   43 1
    37   21   26 ar
    38   21   22 ar
    39   22   23 ar
    40   22   44 1
    41   23   24 ar
    42   23   45 1
    43   24   25 ar
    44   24   46 1
    45   25   26 ar
    46   25   47 1
    47   26   48 1
    48   27   28 1
    49   27   29 1
    50   27   30 1
    51   28   49 1
    52   28   50 1
    53   28   51 1
    54   29   52 1
    55   29   53 1
    56   29   54 1
    57   30   55 1
    58   30   56 1
    59   30   57 1
    60   31   58 1
    61   31   59 1
    62   31   60 1
@<TRIPOS>MOLECULE
ZINC46987296
   52    53     0     0     0
SMALL
USER_CHARGES

@<TRIPOS>ATOM
      1 C1          0.9976    0.2516    0.6861 C.3       1 <0>        -0.1051
      2 C2          0.3318   -1.0840    0.4762 C.2       1 <0>        -0.0919
      3 C3          0.2569   -1.6396   -0.7873 C.2       1 <0>        -0.1614
      4 C4         -0.3487   -2.8424   -0.9416 C.2       1 <0>        -0.1587
      5 S1         -0.8382   -3.2267    0.7316 S.3       1 <0>         0.0501
      6 C5         -0.1976   -1.7610    1.5244 C.2       1 <0>        -0.1847
      7 C6         -0.2366   -1.3756    2.9807 C.3       1 <0>         0.2280
      8 N1         -1.4591   -0.6152    3.2521 N.am      1 <0>        -0.7380
      9 C7         -1.7091   -0.1631    4.4969 C.2       1 <0>         0.7065
     10 O1         -0.9201   -0.3863    5.3947 O.2       1 <0>        -0.5656
     11 N2         -2.8338    0.5365    4.7465 N.am      1 <0>        -0.6844
     12 C8         -3.1411    0.9244    6.0573 C.ar      1 <0>         0.1915
     13 C9         -2.1233    1.2803    6.9323 C.ar      1 <0>        -0.1334
     14 C10        -2.4237    1.6627    8.2254 C.ar      1 <0>        -0.0622
     15 C11        -3.7431    1.6923    8.6522 C.ar      1 <0>         0.1134
     16 C12        -4.7658    1.3361    7.7763 C.ar      1 <0>         0.1275
     17 C13        -4.4633    0.9581    6.4788 C.ar      1 <0>        -0.2184
     18 O2         -6.0598    1.3646    8.1930 O.3       1 <0>        -0.3148
     19 C14        -7.0563    0.9867    7.2410 C.3       1 <0>         0.0279
     20 N3         -4.0474    2.0804    9.9662 N.am      1 <0>        -0.6418
     21 C15        -3.3096    3.0287   10.5768 C.2       1 <0>         0.6526
     22 O3         -2.3313    3.4886   10.0216 O.2       1 <0>        -0.5509
     23 O4         -3.6564    3.4667   11.8021 O.3       1 <0>        -0.3543
     24 C16        -2.8293    4.4731   12.3895 C.3       1 <0>         0.1345
     25 C17        -2.8240    5.7147   11.4955 C.3       1 <0>        -0.1868
     26 C18        -3.3766    4.8411   13.7701 C.3       1 <0>        -0.1409
     27 C19        -1.4019    3.9410   12.5319 C.3       1 <0>        -0.1871
     28 H1          2.0585    0.1012    0.8863 H         1 <0>         0.0739
     29 H2          0.8798    0.8611   -0.2099 H         1 <0>         0.0683
     30 H3          0.5362    0.7584    1.5336 H         1 <0>         0.0681
     31 H4          0.6744   -1.1229   -1.6389 H         1 <0>         0.1367
     32 H5         -0.4970   -3.4185   -1.8430 H         1 <0>         0.1883
     33 H6         -0.2248   -2.2758    3.5952 H         1 <0>         0.0847
     34 H7          0.6328   -0.7624    3.2178 H         1 <0>         0.0928
     35 H8         -2.0886   -0.4372    2.5358 H         1 <0>         0.4003
     36 H9         -3.4304    0.7714    4.0187 H         1 <0>         0.4074
     37 H10        -1.0955    1.2578    6.6016 H         1 <0>         0.1480
     38 H11        -1.6306    1.9384    8.9046 H         1 <0>         0.1531
     39 H12        -5.2551    0.6855    5.7968 H         1 <0>         0.1369
     40 H13        -8.0422    1.0532    7.7013 H         1 <0>         0.1024
     41 H14        -7.0105    1.6559    6.3819 H         1 <0>         0.0567
     42 H15        -6.8764   -0.0374    6.9138 H         1 <0>         0.0571
     43 H16        -4.7888    1.6662   10.4349 H         1 <0>         0.4187
     44 H17        -3.8409    6.0937   11.3940 H         1 <0>         0.0596
     45 H18        -2.1931    6.4823   11.9436 H         1 <0>         0.0712
     46 H19        -2.4341    5.4525   10.5119 H         1 <0>         0.0883
     47 H20        -3.3804    3.9565   14.4070 H         1 <0>         0.0673
     48 H21        -2.7457    5.6087   14.2182 H         1 <0>         0.0817
     49 H22        -4.3935    5.2202   13.6686 H         1 <0>         0.0671
     50 H23        -1.0121    3.6788   11.5484 H         1 <0>         0.0881
     51 H24        -0.7710    4.7086   12.9800 H         1 <0>         0.0715
     52 H25        -1.4058    3.0564   13.1689 H         1 <0>         0.0603
@<TRIPOS>BOND
     1    1    2 1
     2    1   28 1
     3    1   29 1
     4    1   30 1
     5    2    6 2
     6    2    3 1
     7    3    4 2
     8    3   31 1
     9    4    5 1
    10    4   32 1
    11    5    6 1
    12    6    7 1
    13    7    8 1
    14    7   33 1
    15    7   34 1
    16    8    9 am
    17    8   35 1
    18    9   10 2
    19    9   11 am
    20   11   12 1
    21   11   36 1
    22   12   17 ar
    23   12   13 ar
    24   13   14 ar
    25   13   37 1
    26   14   15 ar
    27   14   38 1
    28   15   16 ar
    29   15   20 1
    30   16   17 ar
    31   16   18 1
    32   17   39 1
    33   18   19 1
    34   19   40 1
    35   19   41 1
    36   19   42 1
    37   20   21 am
    38   20   43 1
    39   21   22 2
    40   21   23 1
    41   23   24 1
    42   24   25 1
    43   24   26 1
    44   24   27 1
    45   25   44 1
    46   25   45 1
    47   25   46 1
    48   26   47 1
    49   26   48 1
    50   26   49 1
    51   27   50 1
    52   27   51 1
    53   27   52 1
@<TRIPOS>MOLECULE
ZINC64078250
   53    56     0     0     0
SMALL
USER_CHARGES

@<TRIPOS>ATOM
      1 C1         -0.0187    1.5258    0.0104 C.3       1 <0>        -0.1537
      2 C2          0.0021   -0.0041    0.0020 C.3       1 <0>        -0.1253
      3 C3          0.7182   -0.4975   -1.2568 C.3       1 <0>        -0.1137
      4 C4          0.7390   -2.0273   -1.2652 C.3       1 <0>        -0.0410
      5 C5          1.4443   -2.5133   -2.5051 C.2       1 <0>         0.0935
      6 C6          2.5337   -3.3882   -2.5369 C.2       1 <0>        -0.2723
      7 C7          2.8767   -3.5794   -3.8402 C.2       1 <0>         0.3045
      8 N1          2.0282   -2.8469   -4.5973 N.pl3     1 <0>        -0.4914
      9 H1          2.0332   -2.7878   -5.5655 H         1 <0>         0.4363
     10 N2          1.1380   -2.1928   -3.7362 N.2       1 <0>        -0.2811
     11 N3          3.9147   -4.3839   -4.3096 N.am      1 <0>        -0.6505
     12 C8          4.6879   -5.0626   -3.4389 C.2       1 <0>         0.5218
     13 O1          4.4810   -4.9737   -2.2471 O.2       1 <0>        -0.5035
     14 C9          5.8095   -5.9319   -3.9462 C.3       1 <0>        -0.1190
     15 C10         6.5248   -6.5844   -2.7615 C.3       1 <0>        -0.0603
     16 C11         7.6464   -7.4537   -3.2687 C.2       1 <0>         0.4101
     17 N4          8.4145   -8.1367   -2.3813 N.am      1 <0>        -0.6342
     18 H2          8.2303   -8.0554   -1.4324 H         1 <0>         0.4232
     19 C12         9.4260   -8.9245   -2.7913 C.2       1 <0>         0.5555
     20 O2         10.1058   -9.5316   -1.9820 O.2       1 <0>        -0.5172
     21 C13         9.6901   -9.0378   -4.1957 C.2       1 <0>        -0.2466
     22 C14        10.7252   -9.8248   -4.8647 C.2       1 <0>        -0.0505
     23 C15        10.7661   -9.7626   -6.2125 C.2       1 <0>        -0.1682
     24 S1          9.4464   -8.6679   -6.6620 S.3       1 <0>         0.1480
     25 C16         8.8439   -8.2956   -5.0346 C.2       1 <0>         0.1040
     26 N5          7.8591   -7.5412   -4.5546 N.2       1 <0>        -0.4890
     27 C17        11.7226  -10.4674   -7.1251 C.3       1 <0>        -0.0376
     28 C18        12.8977  -10.9888   -6.2855 C.3       1 <0>        -0.1154
     29 C19        12.3401  -11.7040   -5.0514 C.3       1 <0>        -0.1234
     30 C20        11.7239  -10.6835   -4.0936 C.3       1 <0>        -0.0602
     31 H3          1.0039    1.9031    0.0027 H         1 <0>         0.0532
     32 H4         -0.5459    1.8868   -0.8726 H         1 <0>         0.0536
     33 H5         -0.5289    1.8773    0.9072 H         1 <0>         0.0538
     34 H6          0.5293   -0.3651    0.8851 H         1 <0>         0.0628
     35 H7         -1.0205   -0.3814    0.0098 H         1 <0>         0.0626
     36 H8          0.1910   -0.1364   -2.1398 H         1 <0>         0.0682
     37 H9          1.7408   -0.1202   -1.2645 H         1 <0>         0.0623
     38 H10         1.2661   -2.3884   -0.3821 H         1 <0>         0.0848
     39 H11        -0.2836   -2.4046   -1.2575 H         1 <0>         0.0818
     40 H12         3.0175   -3.8332   -1.6800 H         1 <0>         0.1733
     41 H13         4.0802   -4.4550   -5.2628 H         1 <0>         0.4149
     42 H14         5.4032   -6.7064   -4.5967 H         1 <0>         0.1150
     43 H15         6.5175   -5.3213   -4.5066 H         1 <0>         0.1150
     44 H16         6.9311   -5.8099   -2.1110 H         1 <0>         0.1175
     45 H17         5.8168   -7.1950   -2.2011 H         1 <0>         0.1174
     46 H18        11.2187  -11.3034   -7.6104 H         1 <0>         0.0866
     47 H19        12.0904   -9.7719   -7.8795 H         1 <0>         0.0847
     48 H20        13.4883  -11.6879   -6.8776 H         1 <0>         0.0767
     49 H21        13.5227  -10.1525   -5.9723 H         1 <0>         0.0695
     50 H22        11.5765  -12.4177   -5.3607 H         1 <0>         0.0662
     51 H23        13.1464  -12.2347   -4.5453 H         1 <0>         0.0723
     52 H24        12.5084  -10.0493   -3.6806 H         1 <0>         0.0792
     53 H25        11.2101  -11.2050   -3.2860 H         1 <0>         0.0859
@<TRIPOS>BOND
     1    1    2 1
     2    1   31 1
     3    1   32 1
     4    1   33 1
     5    2    3 1
     6    2   34 1
     7    2   35 1
     8    3    4 1
     9    3   36 1
    10    3   37 1
    11    4    5 1
    12    4   38 1
    13    4   39 1
    14    5   10 2
    15    5    6 1
    16    6    7 2
    17    6   40 1
    18    7    8 1
    19    7   11 1
    20    8    9 1
    21    8   10 1
    22   11   12 am
    23   11   41 1
    24   12   13 2
    25   12   14 1
    26   14   15 1
    27   14   42 1
    28   14   43 1
    29   15   16 1
    30   15   44 1
    31   15   45 1
    32   16   26 2
    33   16   17 1
    34   17   18 1
    35   17   19 am
    36   19   20 2
    37   19   21 1
    38   21   25 2
    39   21   22 1
    40   22   30 1
    41   22   23 2
    42   23   24 1
    43   23   27 1
    44   24   25 1
    45   25   26 1
    46   27   28 1
    47   27   46 1
    48   27   47 1
    49   28   29 1
    50   28   48 1
    51   28   49 1
    52   29   30 1
    53   29   50 1
    54   29   51 1
    55   30   52 1
    56   30   53 1
@<TRIPOS>MOLECULE
ZINC04851264
   47    49     0     0     0
SMALL
USER_CHARGES
N-cyclohexyl-2-[[5-[(4-fluorophenyl)carbamoylamino]-1,3,4-thiadiazol-2-yl]sulfanyl]acetamide
@<TRIPOS>ATOM
      1 C1         14.1851    4.2784    0.2594 C.ar      1 <0>        -0.1113
      2 C2         14.8040    5.3206   -0.4027 C.ar      1 <0>        -0.1341
      3 C3         14.1251    6.5090   -0.6127 C.ar      1 <0>         0.0885
      4 C4         12.8230    6.6533   -0.1644 C.ar      1 <0>        -0.1328
      5 C5         12.1986    5.6115    0.4931 C.ar      1 <0>        -0.0885
      6 C6         12.8776    4.4190    0.7047 C.ar      1 <0>         0.1451
      7 N1         12.2464    3.3615    1.3716 N.am      1 <0>        -0.6727
      8 C7         10.9264    3.1494    1.2010 C.2       1 <0>         0.7022
      9 O1         10.2670    3.9248    0.5358 O.2       1 <0>        -0.5058
     10 N2         10.3373    2.0779    1.7678 N.am      1 <0>        -0.6183
     11 C8          8.9730    1.8587    1.5916 C.2       1 <0>         0.3213
     12 N3          8.0931    2.5710    0.9165 N.2       1 <0>        -0.2890
     13 N4          6.7776    2.1710    0.8711 N.2       1 <0>        -0.2872
     14 C9          6.4030    1.0750    1.5042 C.2       1 <0>         0.0351
     15 S1          7.9470    0.5417    2.2269 S.3       1 <0>         0.0410
     16 S2          4.8057    0.3392    1.6136 S.3       1 <0>         0.1389
     17 C10         3.7465    1.4426    0.6383 C.3       1 <0>        -0.1631
     18 C11         2.3326    0.9211    0.6496 C.2       1 <0>         0.5375
     19 O2          2.0658   -0.0948    1.2559 O.2       1 <0>        -0.5209
     20 N5          1.3647    1.5838   -0.0140 N.am      1 <0>        -0.7184
     21 C12        -0.0098    1.0769   -0.0031 C.3       1 <0>         0.1455
     22 C13        -0.7287    1.5794    1.2505 C.3       1 <0>        -0.1303
     23 C14        -2.1642    1.0500    1.2620 C.3       1 <0>        -0.1177
     24 C15        -2.9013    1.5480    0.0172 C.3       1 <0>        -0.1234
     25 C16        -2.1824    1.0454   -1.2364 C.3       1 <0>        -0.1165
     26 C17        -0.7470    1.5748   -1.2479 C.3       1 <0>        -0.1271
     27 F1         14.7339    7.5290   -1.2564 F         1 <0>        -0.1376
     28 H1         14.7165    3.3532    0.4270 H         1 <0>         0.1382
     29 H2         15.8196    5.2100   -0.7531 H         1 <0>         0.1423
     30 H3         12.2952    7.5811   -0.3292 H         1 <0>         0.1415
     31 H4         11.1827    5.7242    0.8420 H         1 <0>         0.1516
     32 H5         12.7592    2.7818    1.9562 H         1 <0>         0.4129
     33 H6         10.8633    1.4594    2.2985 H         1 <0>         0.4281
     34 H7          4.1109    1.4823   -0.3882 H         1 <0>         0.1302
     35 H8          3.7683    2.4429    1.0707 H         1 <0>         0.1302
     36 H9          1.5781    2.3963   -0.4989 H         1 <0>         0.4044
     37 H10         0.0049   -0.0130   -0.0011 H         1 <0>         0.0919
     38 H11        -0.2036    1.2247    2.1374 H         1 <0>         0.0686
     39 H12        -0.7434    2.6693    1.2486 H         1 <0>         0.0648
     40 H13        -2.6763    1.4080    2.1551 H         1 <0>         0.0664
     41 H14        -2.1495   -0.0399    1.2639 H         1 <0>         0.0654
     42 H15        -2.9160    2.6379    0.0153 H         1 <0>         0.0631
     43 H16        -3.9240    1.1708    0.0254 H         1 <0>         0.0652
     44 H17        -2.7076    1.4001   -2.1232 H         1 <0>         0.0688
     45 H18        -2.1677   -0.0445   -1.2345 H         1 <0>         0.0661
     46 H19        -0.7617    2.6647   -1.2498 H         1 <0>         0.0696
     47 H20        -0.2348    1.2168   -2.1410 H         1 <0>         0.0702
@<TRIPOS>BOND
     1    1    6 ar
     2    1    2 ar
     3    1   28 1
     4    2    3 ar
     5    2   29 1
     6    3    4 ar
     7    3   27 1
     8    4    5 ar
     9    4   30 1
    10    5    6 ar
    11    5   31 1
    12    6    7 1
    13    7    8 am
    14    7   32 1
    15    8    9 2
    16    8   10 am
    17   10   11 1
    18   10   33 1
    19   11   15 1
    20   11   12 2
    21   12   13 1
    22   13   14 2
    23   14   15 1
    24   14   16 1
    25   16   17 1
    26   17   18 1
    27   17   34 1
    28   17   35 1
    29   18   19 2
    30   18   20 am
    31   20   21 1
    32   20   36 1
    33   21   26 1
    34   21   22 1
    35   21   37 1
    36   22   23 1
    37   22   38 1
    38   22   39 1
    39   23   24 1
    40   23   40 1
    41   23   41 1
    42   24   25 1
    43   24   42 1
    44   24   43 1
    45   25   26 1
    46   25   44 1
    47   25   45 1
    48   26   46 1
    49   26   47 1
@<TRIPOS>MOLECULE
ZINC16809492
   51    53     0     0     0
SMALL
USER_CHARGES
2-[(5-allyl-4-methyl-6-oxo-1H-pyrimidin-2-yl)amino]-6-methyl-5-(p-tolylmethyl)-3H-pyrimidin-4-one
@<TRIPOS>ATOM
      1 C1         -5.9630    3.8670    6.1515 C.3       1 <0>        -0.1157
      2 C2         -5.6684    3.8259    4.6742 C.ar      1 <0>        -0.0903
      3 C3         -5.0121    4.8823    4.0707 C.ar      1 <0>        -0.1224
      4 C4         -4.7418    4.8447    2.7156 C.ar      1 <0>        -0.1133
      5 C5         -5.1270    3.7503    1.9641 C.ar      1 <0>        -0.0822
      6 C6         -5.7876    2.6960    2.5666 C.ar      1 <0>        -0.1033
      7 C7         -6.0540    2.7317    3.9226 C.ar      1 <0>        -0.1222
      8 C8         -4.8323    3.7092    0.4867 C.3       1 <0>        -0.0117
      9 C9         -3.5360    2.9771    0.2533 C.2       1 <0>        -0.2759
     10 C10        -2.3603    3.6623    0.1549 C.2       1 <0>         0.2109
     11 N1         -1.2195    3.0055   -0.0457 N.2       1 <0>        -0.4908
     12 C11        -1.1951    1.6941   -0.1642 C.2       1 <0>         0.6107
     13 N2         -2.3350    0.9579   -0.0748 N.am      1 <0>        -0.6427
     14 H1         -2.2988   -0.0076   -0.1608 H         1 <0>         0.4126
     15 C12        -3.5175    1.5756    0.1335 C.2       1 <0>         0.5468
     16 O1         -4.5498    0.9306    0.2166 O.2       1 <0>        -0.5261
     17 N3          0.0046    1.0578   -0.3763 N.pl3     1 <0>        -0.6212
     18 C13         1.1632    1.7905   -0.4743 C.2       1 <0>         0.6102
     19 N4          2.3437    1.1486   -0.6843 N.am      1 <0>        -0.6429
     20 H2          2.3646    0.1821   -0.7639 H         1 <0>         0.4125
     21 C14         3.4857    1.8617   -0.7868 C.2       1 <0>         0.5449
     22 O2          4.5526    1.3027   -0.9805 O.2       1 <0>        -0.5255
     23 C15         3.4219    3.2614   -0.6611 C.2       1 <0>        -0.2777
     24 C16         2.2096    3.8490   -0.4455 C.2       1 <0>         0.2080
     25 N5          1.1115    3.1013   -0.3576 N.2       1 <0>        -0.4910
     26 C17         2.1133    5.3465   -0.3072 C.3       1 <0>        -0.1076
     27 C18         4.6714    4.0977   -0.7634 C.3       1 <0>        -0.0233
     28 C19         5.3473    4.1576    0.5823 C.2       1 <0>        -0.1531
     29 C20         6.6012    3.7978    0.7021 C.2       1 <0>        -0.1823
     30 C21        -2.3519    5.1641    0.2795 C.3       1 <0>        -0.1107
     31 H3         -6.9371    4.3279    6.3151 H         1 <0>         0.0700
     32 H4         -5.9700    2.8520    6.5490 H         1 <0>         0.0646
     33 H5         -5.1951    4.4507    6.6591 H         1 <0>         0.0652
     34 H6         -4.7108    5.7372    4.6579 H         1 <0>         0.1203
     35 H7         -4.2293    5.6702    2.2440 H         1 <0>         0.1218
     36 H8         -6.0925    1.8429    1.9787 H         1 <0>         0.1273
     37 H9         -6.5665    1.9063    4.3942 H         1 <0>         0.1188
     38 H10        -4.7490    4.7266    0.1045 H         1 <0>         0.0870
     39 H11        -5.6401    3.1917   -0.0307 H         1 <0>         0.0853
     40 H12         0.0329    0.0919   -0.4609 H         1 <0>         0.4333
     41 H13         1.0740    5.6300   -0.1411 H         1 <0>         0.0857
     42 H14         2.7185    5.6729    0.5386 H         1 <0>         0.0855
     43 H15         2.4778    5.8198   -1.2189 H         1 <0>         0.0865
     44 H16         5.3492    3.6508   -1.4907 H         1 <0>         0.0795
     45 H17         4.4086    5.1060   -1.0832 H         1 <0>         0.0858
     46 H18         4.7979    4.4973    1.4478 H         1 <0>         0.1056
     47 H19         7.1506    3.4582   -0.1635 H         1 <0>         0.0975
     48 H20         7.0855    3.8408    1.6664 H         1 <0>         0.0957
     49 H21        -2.3107    5.4410    1.3329 H         1 <0>         0.0884
     50 H22        -1.4802    5.5666   -0.2364 H         1 <0>         0.0862
     51 H23        -3.2589    5.5708   -0.1679 H         1 <0>         0.0852
@<TRIPOS>BOND
     1    1    2 1
     2    1   31 1
     3    1   32 1
     4    1   33 1
     5    2    7 ar
     6    2    3 ar
     7    3    4 ar
     8    3   34 1
     9    4    5 ar
    10    4   35 1
    11    5    6 ar
    12    5    8 1
    13    6    7 ar
    14    6   36 1
    15    7   37 1
    16    8    9 1
    17    8   38 1
    18    8   39 1
    19    9   15 1
    20    9   10 2
    21   10   11 1
    22   10   30 1
    23   11   12 2
    24   12   13 1
    25   12   17 1
    26   13   14 1
    27   13   15 am
    28   15   16 2
    29   17   18 1
    30   17   40 1
    31   18   25 2
    32   18   19 1
    33   19   20 1
    34   19   21 am
    35   21   22 2
    36   21   23 1
    37   23   24 2
    38   23   27 1
    39   24   25 1
    40   24   26 1
    41   26   41 1
    42   26   42 1
    43   26   43 1
    44   27   28 1
    45   27   44 1
    46   27   45 1
    47   28   29 2
    48   28   46 1
    49   29   47 1
    50   29   48 1
    51   30   49 1
    52   30   50 1
    53   30   51 1
@<TRIPOS>MOLECULE
ZINC29076593
   47    49     0     0     0
SMALL
USER_CHARGES
N-[4-methyl-5-[[3-(propanoylamino)phenyl]carbamoyl]-2-thienyl]furan-2-carboxamide
@<TRIPOS>ATOM
      1 C1          0.0614    5.0168    1.5586 C.3       1 <0>        -0.1411
      2 C2          0.0668    3.5062    1.8016 C.3       1 <0>        -0.1437
      3 C3         -1.1362    2.8865    1.1384 C.2       1 <0>         0.5114
      4 O1         -1.9206    3.5843    0.5312 O.2       1 <0>        -0.5227
      5 N1         -1.3434    1.5575    1.2248 N.am      1 <0>        -0.6884
      6 C4         -2.5161    0.9971    0.7065 C.ar      1 <0>         0.1677
      7 C5         -2.4924   -0.2774    0.1536 C.ar      1 <0>        -0.1630
      8 C6         -3.6497   -0.8315   -0.3583 C.ar      1 <0>        -0.0819
      9 C7         -4.8341   -0.1208   -0.3224 C.ar      1 <0>        -0.1373
     10 C8         -4.8646    1.1538    0.2295 C.ar      1 <0>         0.1734
     11 C9         -3.7046    1.7111    0.7494 C.ar      1 <0>        -0.1509
     12 N2         -6.0635    1.8725    0.2655 N.am      1 <0>        -0.6847
     13 C10        -7.2295    1.2282    0.4700 C.2       1 <0>         0.6139
     14 O2         -7.2493    0.0126    0.5401 O.2       1 <0>        -0.5161
     15 C11        -8.4333    1.9659    0.6037 C.2       1 <0>        -0.3140
     16 C12        -9.7241    1.4992    0.8108 C.2       1 <0>         0.0103
     17 C13       -10.7206    2.4324    0.9098 C.2       1 <0>        -0.2299
     18 C14       -10.3947    3.7668    0.7882 C.2       1 <0>         0.0779
     19 S1         -8.6791    3.7316    0.5411 S.3       1 <0>         0.2453
     20 N3        -11.2354    4.8695    0.8489 N.am      1 <0>        -0.6247
     21 C15       -10.7300    6.1108    0.7069 C.2       1 <0>         0.6032
     22 O3         -9.5364    6.2648    0.5256 O.2       1 <0>        -0.4841
     23 C16       -11.6179    7.2755    0.7710 C.2       1 <0>        -0.0910
     24 C17       -11.2391    8.5816    0.6438 C.2       1 <0>        -0.0984
     25 C18       -12.4044    9.3537    0.7689 C.2       1 <0>        -0.2251
     26 C19       -13.4306    8.4963    0.9645 C.2       1 <0>         0.0104
     27 O4        -12.9534    7.2448    0.9601 O.3       1 <0>        -0.1666
     28 C20       -10.0158    0.0253    0.9270 C.3       1 <0>        -0.1009
     29 H1          0.9395    5.4692    2.0427 H         1 <0>         0.0640
     30 H2         -0.8557    5.4529    1.9814 H         1 <0>         0.0626
     31 H3          0.0965    5.2143    0.4770 H         1 <0>         0.0630
     32 H4          0.9839    3.0701    1.3788 H         1 <0>         0.0965
     33 H5          0.0317    3.3087    2.8831 H         1 <0>         0.0973
     34 H6         -0.5906    0.9134    1.7028 H         1 <0>         0.4356
     35 H7         -1.5682   -0.8354    0.1238 H         1 <0>         0.1254
     36 H8         -3.6285   -1.8222   -0.7878 H         1 <0>         0.1294
     37 H9         -5.7370   -0.5565   -0.7240 H         1 <0>         0.1399
     38 H10        -3.7264    2.7003    1.1823 H         1 <0>         0.1354
     39 H11        -6.0550    2.9637    0.1269 H         1 <0>         0.4311
     40 H12       -11.7439    2.1290    1.0748 H         1 <0>         0.1434
     41 H13       -12.3142    4.7303    1.0129 H         1 <0>         0.4562
     42 H14       -10.2369    8.9490    0.4792 H         1 <0>         0.1653
     43 H15       -12.4689   10.4306    0.7189 H         1 <0>         0.1625
     44 H16       -14.4656    8.7743    1.0980 H         1 <0>         0.2162
     45 H17       -11.0938   -0.1236    1.0877 H         1 <0>         0.0634
     46 H18        -9.4571   -0.3931    1.7771 H         1 <0>         0.0820
     47 H19        -9.7095   -0.4832    0.0009 H         1 <0>         0.0819
@<TRIPOS>BOND
     1    1    2 1
     2    1   29 1
     3    1   30 1
     4    1   31 1
     5    2    3 1
     6    2   32 1
     7    2   33 1
     8    3    4 2
     9    3    5 am
    10    5    6 1
    11    5   34 1
    12    6   11 ar
    13    6    7 ar
    14    7    8 ar
    15    7   35 1
    16    8    9 ar
    17    8   36 1
    18    9   10 ar
    19    9   37 1
    20   10   11 ar
    21   10   12 1
    22   11   38 1
    23   12   13 am
    24   12   39 1
    25   13   14 2
    26   13   15 1
    27   15   19 1
    28   15   16 2
    29   16   17 1
    30   16   28 1
    31   17   18 2
    32   17   40 1
    33   18   19 1
    34   18   20 1
    35   20   21 am
    36   20   41 1
    37   21   22 2
    38   21   23 1
    39   23   27 1
    40   23   24 2
    41   24   25 1
    42   24   42 1
    43   25   26 2
    44   25   43 1
    45   26   27 1
    46   26   44 1
    47   28   45 1
    48   28   46 1
    49   28   47 1
@<TRIPOS>MOLECULE
ZINC45521388
   47    49     0     0     0
SMALL
USER_CHARGES

@<TRIPOS>ATOM
      1 C1         -0.0156    1.5169   -0.0216 C.3       1 <0>        -0.1360
      2 C2          0.0021   -0.0130   -0.0237 C.3       1 <0>         0.0784
      3 H1          0.5066   -0.3688   -0.9221 H         1 <0>         0.1030
      4 C3         -1.4134   -0.5313   -0.0044 C.2       1 <0>         0.4938
      5 O1         -2.3089    0.1247   -0.4933 O.2       1 <0>        -0.5041
      6 N1         -1.6804   -1.7295    0.5593 N.am      1 <0>        -0.6613
      7 C4         -0.6332   -2.4521    1.1485 C.ar      1 <0>         0.1449
      8 C5         -0.7827   -3.7961    1.4464 C.ar      1 <0>        -0.1966
      9 C6          0.2663   -4.4935    2.0308 C.ar      1 <0>         0.2318
     10 C7          1.4605   -3.8437    2.3148 C.ar      1 <0>        -0.1922
     11 C8          1.6099   -2.5019    2.0160 C.ar      1 <0>        -0.0544
     12 C9          0.5671   -1.8031    1.4335 C.ar      1 <0>         0.0207
     13 O2          0.7008   -0.4826    1.1322 O.3       1 <0>        -0.3007
     14 N2          0.1200   -5.8516    2.3342 N.pl3     1 <0>        -0.7280
     15 C10         1.2264   -6.5878    2.9508 C.3       1 <0>         0.1368
     16 H2          2.1733   -6.2126    2.5628 H         1 <0>         0.1123
     17 C11         1.1845   -6.3949    4.4680 C.3       1 <0>        -0.1693
     18 C12         1.0964   -8.0539    2.6270 C.2       1 <0>         0.5123
     19 O3          0.1707   -8.4453    1.9481 O.2       1 <0>        -0.5105
     20 N3          2.0089   -8.9301    3.0919 N.am      1 <0>        -0.6667
     21 C13         1.8362  -10.3033    2.8736 C.ar      1 <0>         0.1248
     22 C14         2.2338  -11.2158    3.8415 C.ar      1 <0>        -0.1041
     23 C15         2.0629  -12.5690    3.6259 C.ar      1 <0>        -0.1032
     24 C16         1.4946  -13.0168    2.4422 C.ar      1 <0>         0.0928
     25 C17         1.0976  -12.1056    1.4745 C.ar      1 <0>        -0.1705
     26 C18         1.2623  -10.7518    1.6915 C.ar      1 <0>        -0.0779
     27 O4          1.3271  -14.3494    2.2303 O.3       1 <0>        -0.3098
     28 C19         0.7355  -14.7396    0.9895 C.3       1 <0>         0.6039
     29 F1          1.5310  -14.2878   -0.0689 F         1 <0>        -0.1644
     30 F2          0.6382  -16.1342    0.9374 F         1 <0>        -0.1296
     31 F3         -0.5420  -14.1788    0.8851 F         1 <0>        -0.1639
     32 H3          1.0077    1.8921   -0.0367 H         1 <0>         0.0811
     33 H4         -0.5471    1.8753   -0.9031 H         1 <0>         0.0911
     34 H5         -0.5200    1.8732    0.8766 H         1 <0>         0.0708
     35 H6         -2.5831   -2.0846    0.5567 H         1 <0>         0.4158
     36 H7         -1.7119   -4.3000    1.2253 H         1 <0>         0.1328
     37 H8          2.2748   -4.3880    2.7699 H         1 <0>         0.1329
     38 H9          2.5397   -1.9994    2.2379 H         1 <0>         0.1407
     39 H10        -0.7140   -6.3056    2.1363 H         1 <0>         0.4114
     40 H11         0.2376   -6.7701    4.8560 H         1 <0>         0.0683
     41 H12         2.0077   -6.9426    4.9267 H         1 <0>         0.0719
     42 H13         1.2785   -5.3345    4.7022 H         1 <0>         0.0800
     43 H14         2.7851   -8.6101    3.5777 H         1 <0>         0.4156
     44 H15         2.6769  -10.8674    4.7628 H         1 <0>         0.1432
     45 H16         2.3721  -13.2790    4.3787 H         1 <0>         0.1456
     46 H17         0.6559  -12.4548    0.5529 H         1 <0>         0.1378
     47 H18         0.9487  -10.0423    0.9401 H         1 <0>         0.1492
@<TRIPOS>BOND
     1    1    2 1
     2    1   32 1
     3    1   33 1
     4    1   34 1
     5    2    3 1
     6    2   13 1
     7    2    4 1
     8    4    5 2
     9    4    6 am
    10    6    7 1
    11    6   35 1
    12    7   12 ar
    13    7    8 ar
    14    8    9 ar
    15    8   36 1
    16    9   10 ar
    17    9   14 1
    18   10   11 ar
    19   10   37 1
    20   11   12 ar
    21   11   38 1
    22   12   13 1
    23   14   15 1
    24   14   39 1
    25   15   16 1
    26   15   17 1
    27   15   18 1
    28   17   40 1
    29   17   41 1
    30   17   42 1
    31   18   19 2
    32   18   20 am
    33   20   21 1
    34   20   43 1
    35   21   26 ar
    36   21   22 ar
    37   22   23 ar
    38   22   44 1
    39   23   24 ar
    40   23   45 1
    41   24   25 ar
    42   24   27 1
    43   25   26 ar
    44   25   46 1
    45   26   47 1
    46   27   28 1
    47   28   29 1
    48   28   30 1
    49   28   31 1
@<TRIPOS>MOLECULE
ZINC03184169
   47    49     0     0     0
SMALL
USER_CHARGES

@<TRIPOS>ATOM
      1 C1         -0.4130    1.0009   -2.3937 C.3       1 <0>        -0.1539
      2 C2         -0.2927   -0.3966   -1.7825 C.3       1 <0>         0.0558
      3 O1         -1.5349   -0.7601   -1.1768 O.3       1 <0>        -0.3163
      4 C3         -1.5981   -1.9818   -0.5835 C.ar      1 <0>         0.1167
      5 C4         -0.4876   -2.8101   -0.5793 C.ar      1 <0>        -0.1931
      6 C5         -0.5535   -4.0523    0.0240 C.ar      1 <0>        -0.0850
      7 C6         -1.7263   -4.4724    0.6246 C.ar      1 <0>        -0.1391
      8 C7         -2.8385   -3.6526    0.6254 C.ar      1 <0>        -0.0802
      9 C8         -2.7785   -2.4017    0.0269 C.ar      1 <0>         0.1030
     10 N1         -3.9015   -1.5675    0.0309 N.am      1 <0>        -0.6271
     11 C9         -5.1364   -2.0994   -0.0619 C.2       1 <0>         0.5157
     12 O2         -5.2793   -3.3052   -0.0672 O.2       1 <0>        -0.5022
     13 C10        -6.3264   -1.2076   -0.1580 C.2       1 <0>         0.5304
     14 O3         -6.1835   -0.0013   -0.1527 O.2       1 <0>        -0.4714
     15 N2         -7.5613   -1.7395   -0.2508 N.am      1 <0>        -0.5604
     16 N3         -8.6802   -0.9011   -0.3411 N.2       1 <0>        -0.2079
     17 C11        -9.8726   -1.4147   -0.4308 C.2       1 <0>         0.1191
     18 C12       -11.0452   -0.5360   -0.5255 C.ar      1 <0>        -0.0928
     19 C13       -12.3926   -1.0959   -0.6207 C.ar      1 <0>        -0.0085
     20 C14       -12.6104   -2.4786   -0.6243 C.ar      1 <0>        -0.1189
     21 C15       -13.8828   -2.9602   -0.7143 C.ar      1 <0>        -0.0991
     22 C16       -14.9702   -2.0947   -0.8033 C.ar      1 <0>        -0.1226
     23 C17       -14.7937   -0.7444   -0.8024 C.ar      1 <0>        -0.0927
     24 C18       -13.4961   -0.2130   -0.7104 C.ar      1 <0>        -0.0670
     25 C19       -13.2752    1.1758   -0.7060 C.ar      1 <0>        -0.0642
     26 C20       -12.0161    1.6800   -0.6168 C.ar      1 <0>        -0.1501
     27 C21       -10.8986    0.8519   -0.5207 C.ar      1 <0>         0.1686
     28 O4         -9.6599    1.3990   -0.4272 O.3       1 <0>        -0.4718
     29 H1          0.5345    1.2782   -2.8557 H         1 <0>         0.0804
     30 H2         -1.1991    1.0009   -3.1487 H         1 <0>         0.0670
     31 H3         -0.6600    1.7193   -1.6120 H         1 <0>         0.0679
     32 H4         -0.0457   -1.1149   -2.5642 H         1 <0>         0.0639
     33 H5          0.4934   -0.3965   -1.0275 H         1 <0>         0.0645
     34 H6          0.4299   -2.4855   -1.0476 H         1 <0>         0.1345
     35 H7          0.3132   -4.6966    0.0259 H         1 <0>         0.1295
     36 H8         -1.7731   -5.4440    1.0939 H         1 <0>         0.1312
     37 H9         -3.7530   -3.9833    1.0952 H         1 <0>         0.1472
     38 H10        -3.7914   -0.6063    0.1005 H         1 <0>         0.4274
     39 H11        -7.6755   -2.7028   -0.2550 H         1 <0>         0.3978
     40 H12        -9.9997   -2.4872   -0.4355 H         1 <0>         0.1247
     41 H13       -11.7753   -3.1601   -0.5566 H         1 <0>         0.1273
     42 H14       -14.0495   -4.0272   -0.7170 H         1 <0>         0.1271
     43 H15       -15.9685   -2.5006   -0.8744 H         1 <0>         0.1265
     44 H16       -15.6465   -0.0854   -0.8720 H         1 <0>         0.1315
     45 H17       -14.1162    1.8500   -0.7747 H         1 <0>         0.1352
     46 H18       -11.8779    2.7511   -0.6158 H         1 <0>         0.1357
     47 H19        -9.2325    1.5533   -1.2808 H         1 <0>         0.3957
@<TRIPOS>BOND
     1    1    2 1
     2    1   29 1
     3    1   30 1
     4    1   31 1
     5    2    3 1
     6    2   32 1
     7    2   33 1
     8    3    4 1
     9    4    9 ar
    10    4    5 ar
    11    5    6 ar
    12    5   34 1
    13    6    7 ar
    14    6   35 1
    15    7    8 ar
    16    7   36 1
    17    8    9 ar
    18    8   37 1
    19    9   10 1
    20   10   11 am
    21   10   38 1
    22   11   12 2
    23   11   13 1
    24   13   14 2
    25   13   15 am
    26   15   16 1
    27   15   39 1
    28   16   17 2
    29   17   18 1
    30   17   40 1
    31   18   27 ar
    32   18   19 ar
    33   19   24 ar
    34   19   20 ar
    35   20   21 ar
    36   20   41 1
    37   21   22 ar
    38   21   42 1
    39   22   23 ar
    40   22   43 1
    41   23   24 ar
    42   23   44 1
    43   24   25 ar
    44   25   26 ar
    45   25   45 1
    46   26   27 ar
    47   26   46 1
    48   27   28 1
    49   28   47 1
@<TRIPOS>MOLECULE
ZINC10353067
   57    60     0     0     0
SMALL
USER_CHARGES
4-(3,4-dimethoxyphenyl)-6-methyl-N-(5-methylisoxazol-3-yl)-1-phenyl-2-thioxo-3,4-dihydropyrimidine-5-carboxamide
@<TRIPOS>ATOM
      1 C1          0.9465    6.7654    9.3440 C.3       1 <0>        -0.0766
      2 C2          1.4168    6.7015    7.9137 C.2       1 <0>        -0.0175
      3 C3          0.7608    7.1655    6.8259 C.2       1 <0>        -0.2297
      4 C4          1.6299    6.8585    5.7450 C.2       1 <0>         0.2455
      5 N1          2.6689    6.2633    6.2699 N.2       1 <0>        -0.3853
      6 O1          2.5677    6.1743    7.4715 O.3       1 <0>         0.1000
      7 N2          1.4152    7.1317    4.3951 N.am      1 <0>        -0.6214
      8 C5          0.2836    7.7508    4.0045 C.2       1 <0>         0.6118
      9 O2         -0.5186    8.1345    4.8361 O.2       1 <0>        -0.4973
     10 C6          0.0276    7.9550    2.6267 C.2       1 <0>        -0.2529
     11 C7          0.7126    8.8783    1.9189 C.2       1 <0>         0.1898
     12 N3          0.4648    9.0740    0.5890 N.pl3     1 <0>        -0.4501
     13 C8         -0.4514    8.3863   -0.1043 C.2       1 <0>         0.5479
     14 S1         -0.6610    8.7303   -1.7682 S.2       1 <0>        -0.5723
     15 N4         -1.2140    7.4321    0.4652 N.pl3     1 <0>        -0.6448
     16 C9         -1.0240    7.1443    1.8968 C.3       1 <0>         0.2316
     17 H1         -1.9781    7.3011    2.3999 H         1 <0>         0.1045
     18 C10        -0.6652    5.6871    2.0341 C.ar      1 <0>        -0.1218
     19 C11         0.3228    5.1418    1.2354 C.ar      1 <0>        -0.0911
     20 C12         0.6592    3.8069    1.3611 C.ar      1 <0>        -0.1702
     21 C13        -0.0015    3.0097    2.2820 C.ar      1 <0>         0.1149
     22 C14        -0.9956    3.5586    3.0862 C.ar      1 <0>         0.1059
     23 C15        -1.3243    4.8987    2.9587 C.ar      1 <0>        -0.1518
     24 O3         -1.6434    2.7815    3.9951 O.3       1 <0>        -0.3024
     25 C16        -2.6523    3.4125    4.7863 C.3       1 <0>         0.0245
     26 O4          0.3246    1.6950    2.4033 O.3       1 <0>        -0.3028
     27 C17         1.3544    1.2002    1.5451 C.3       1 <0>         0.0242
     28 C18         1.2110   10.0478   -0.0863 C.ar      1 <0>         0.1140
     29 C19         0.6526   11.2908   -0.3539 C.ar      1 <0>        -0.0765
     30 C20         1.3931   12.2510   -1.0149 C.ar      1 <0>        -0.1072
     31 C21         2.6855   11.9720   -1.4201 C.ar      1 <0>        -0.0973
     32 C22         3.2423   10.7331   -1.1606 C.ar      1 <0>        -0.1087
     33 C23         2.5089    9.7705   -0.4949 C.ar      1 <0>        -0.0942
     34 C24         1.7679    9.7061    2.6061 C.3       1 <0>        -0.1355
     35 H2          0.3721    5.8690    9.5779 H         1 <0>         0.0906
     36 H3          1.8089    6.8277   10.0076 H         1 <0>         0.0861
     37 H4          0.3182    7.6455    9.4810 H         1 <0>         0.0942
     38 H5         -0.2006    7.6560    6.7879 H         1 <0>         0.1898
     39 H6          2.0803    6.8761    3.7369 H         1 <0>         0.4189
     40 H7         -1.8720    6.9458   -0.0559 H         1 <0>         0.4487
     41 H8          0.8357    5.7611    0.5144 H         1 <0>         0.1205
     42 H9          1.4342    3.3843    0.7389 H         1 <0>         0.1396
     43 H10        -2.0952    5.3272    3.5820 H         1 <0>         0.1388
     44 H11        -3.0885    2.6827    5.4683 H         1 <0>         0.1042
     45 H12        -2.2082    4.2259    5.3601 H         1 <0>         0.0554
     46 H13        -3.4297    3.8102    4.1340 H         1 <0>         0.0565
     47 H14         1.5155    0.1407    1.7443 H         1 <0>         0.1042
     48 H15         2.2775    1.7493    1.7311 H         1 <0>         0.0563
     49 H16         1.0558    1.3331    0.5052 H         1 <0>         0.0572
     50 H17        -0.3582   11.5079   -0.0413 H         1 <0>         0.1258
     51 H18         0.9610   13.2195   -1.2194 H         1 <0>         0.1329
     52 H19         3.2611   12.7231   -1.9405 H         1 <0>         0.1305
     53 H20         4.2517   10.5180   -1.4786 H         1 <0>         0.1324
     54 H21         2.9443    8.8031   -0.2925 H         1 <0>         0.1246
     55 H22         2.7213    9.1787    2.5742 H         1 <0>         0.0976
     56 H23         1.8659   10.6650    2.0971 H         1 <0>         0.0952
     57 H24         1.4797    9.8734    3.6439 H         1 <0>         0.0927
@<TRIPOS>BOND
     1    1    2 1
     2    1   35 1
     3    1   36 1
     4    1   37 1
     5    2    6 1
     6    2    3 2
     7    3    4 1
     8    3   38 1
     9    4    5 2
    10    4    7 1
    11    5    6 1
    12    7    8 am
    13    7   39 1
    14    8    9 2
    15    8   10 1
    16   10   16 1
    17   10   11 2
    18   11   12 1
    19   11   34 1
    20   12   13 1
    21   12   28 1
    22   13   14 2
    23   13   15 1
    24   15   16 1
    25   15   40 1
    26   16   17 1
    27   16   18 1
    28   18   23 ar
    29   18   19 ar
    30   19   20 ar
    31   19   41 1
    32   20   21 ar
    33   20   42 1
    34   21   22 ar
    35   21   26 1
    36   22   23 ar
    37   22   24 1
    38   23   43 1
    39   24   25 1
    40   25   44 1
    41   25   45 1
    42   25   46 1
    43   26   27 1
    44   27   47 1
    45   27   48 1
    46   27   49 1
    47   28   33 ar
    48   28   29 ar
    49   29   30 ar
    50   29   50 1
    51   30   31 ar
    52   30   51 1
    53   31   32 ar
    54   31   52 1
    55   32   33 ar
    56   32   53 1
    57   33   54 1
    58   34   55 1
    59   34   56 1
    60   34   57 1
@<TRIPOS>MOLECULE
ZINC13502543
   59    62     0     0     0
SMALL
USER_CHARGES
N'-[2-(isopropyl-methyl-BLAHyl)sulfanylacetyl]-2-methyl-propanehydrazide
@<TRIPOS>ATOM
      1 C1          0.3471   -4.3166    0.0112 C.3       1 <0>        -0.1476
      2 C2          0.2045   -2.8260    0.3256 C.3       1 <0>        -0.0869
      3 H1          0.0388   -2.6920    1.3945 H         1 <0>         0.0785
      4 C3         -0.9776   -2.2438   -0.4546 C.3       1 <0>        -0.1172
      5 C4         -1.2822   -0.8293    0.0400 C.3       1 <0>        -0.0600
      6 C5          0.0018   -0.0040   -0.0077 C.2       1 <0>        -0.0829
      7 C6          1.2075   -0.6153   -0.0671 C.2       1 <0>        -0.1388
      8 S1          2.3802    0.7144   -0.1053 S.3       1 <0>         0.1789
      9 C7          1.2254    2.0625   -0.0407 C.2       1 <0>         0.0369
     10 C8         -0.0172    1.4134    0.0076 C.2       1 <0>        -0.0796
     11 C9         -1.1875    2.3170    0.0625 C.2       1 <0>         0.2488
     12 N1         -2.4824    2.1278    0.1233 N.2       1 <0>        -0.2608
     13 N2         -3.0848    3.2658    0.1595 N.2       1 <0>        -0.2520
     14 C10        -2.2102    4.2453    0.1296 C.2       1 <0>         0.1325
     15 N3         -0.9680    3.6772    0.0704 N.pl3     1 <0>        -0.4215
     16 C11         0.3016    4.1751    0.0196 C.2       1 <0>         0.3822
     17 N4          1.3381    3.3878   -0.0329 N.2       1 <0>        -0.4255
     18 C12         0.5091    5.6677    0.0250 C.3       1 <0>        -0.0371
     19 C13         1.1945    6.0827    1.3284 C.3       1 <0>        -0.1434
     20 C14         1.3884    6.0647   -1.1625 C.3       1 <0>        -0.1414
     21 S2         -2.5707    5.9697    0.1594 S.3       1 <0>         0.1090
     22 C15        -4.3817    6.0382    0.2395 C.3       1 <0>        -0.1568
     23 C16        -4.8291    7.4769    0.2709 C.2       1 <0>         0.5394
     24 O1         -4.0072    8.3683    0.2421 O.2       1 <0>        -0.5223
     25 N5         -6.1426    7.7729    0.3310 N.am      1 <0>        -0.5156
     26 N6         -6.5585    9.1104    0.3601 N.am      1 <0>        -0.5225
     27 C17        -7.8720    9.4065    0.4202 C.2       1 <0>         0.5184
     28 O2         -8.6938    8.5151    0.4490 O.2       1 <0>        -0.5324
     29 C18        -8.3194   10.8452    0.4516 C.3       1 <0>        -0.1014
     30 C19        -9.8468   10.9029    0.5191 C.3       1 <0>        -0.1352
     31 C20        -7.7280   11.5365    1.6817 C.3       1 <0>        -0.1502
     32 C21         1.4832   -2.0863   -0.0942 C.3       1 <0>        -0.0371
     33 H2          1.1973   -4.7236    0.5585 H         1 <0>         0.0586
     34 H3         -0.5614   -4.8395    0.3099 H         1 <0>         0.0608
     35 H4          0.5071   -4.4485   -1.0589 H         1 <0>         0.0580
     36 H5         -0.7301   -2.2110   -1.5157 H         1 <0>         0.0673
     37 H6         -1.8546   -2.8740   -0.3068 H         1 <0>         0.0747
     38 H7         -1.6513   -0.8717    1.0648 H         1 <0>         0.0814
     39 H8         -2.0345   -0.3721   -0.6027 H         1 <0>         0.0861
     40 H9         -0.4557    6.1689   -0.0537 H         1 <0>         0.0978
     41 H10         2.1593    5.5815    1.4071 H         1 <0>         0.0744
     42 H11         1.3446    7.1623    1.3323 H         1 <0>         0.0817
     43 H12         0.5681    5.7998    2.1744 H         1 <0>         0.0597
     44 H13         1.5384    7.1443   -1.1586 H         1 <0>         0.0792
     45 H14         2.3531    5.5635   -1.0838 H         1 <0>         0.0773
     46 H15         0.9000    5.7691   -2.0910 H         1 <0>         0.0592
     47 H16        -4.8030    5.5457   -0.6369 H         1 <0>         0.1346
     48 H17        -4.7249    5.5312    1.1413 H         1 <0>         0.1347
     49 H18        -6.7999    7.0600    0.3540 H         1 <0>         0.4365
     50 H19        -5.9012    9.8234    0.3371 H         1 <0>         0.4337
     51 H20        -7.9762   11.3522   -0.4502 H         1 <0>         0.1058
     52 H21       -10.1901   10.3960    1.4209 H         1 <0>         0.0650
     53 H22       -10.1705   11.9435    0.5418 H         1 <0>         0.0687
     54 H23       -10.2681   10.4104   -0.3573 H         1 <0>         0.0647
     55 H24        -6.6399   11.4954    1.6336 H         1 <0>         0.0616
     56 H25        -8.0517   12.5771    1.7044 H         1 <0>         0.0758
     57 H26        -8.0713   11.0296    2.5835 H         1 <0>         0.0646
     58 H27         1.7678   -2.3880   -1.1023 H         1 <0>         0.0923
     59 H28         2.2888   -2.3218    0.6012 H         1 <0>         0.0890
@<TRIPOS>BOND
     1    1    2 1
     2    1   33 1
     3    1   34 1
     4    1   35 1
     5    2    3 1
     6    2   32 1
     7    2    4 1
     8    4    5 1
     9    4   36 1
    10    4   37 1
    11    5    6 1
    12    5   38 1
    13    5   39 1
    14    6   10 1
    15    6    7 2
    16    7    8 1
    17    7   32 1
    18    8    9 1
    19    9   17 1
    20    9   10 2
    21   10   11 1
    22   11   15 1
    23   11   12 2
    24   12   13 1
    25   13   14 2
    26   14   15 1
    27   14   21 1
    28   15   16 1
    29   16   17 2
    30   16   18 1
    31   18   19 1
    32   18   20 1
    33   18   40 1
    34   19   41 1
    35   19   42 1
    36   19   43 1
    37   20   44 1
    38   20   45 1
    39   20   46 1
    40   21   22 1
    41   22   23 1
    42   22   47 1
    43   22   48 1
    44   23   24 2
    45   23   25 am
    46   25   26 1
    47   25   49 1
    48   26   27 am
    49   26   50 1
    50   27   28 2
    51   27   29 1
    52   29   30 1
    53   29   31 1
    54   29   51 1
    55   30   52 1
    56   30   53 1
    57   30   54 1
    58   31   55 1
    59   31   56 1
    60   31   57 1
    61   32   58 1
    62   32   59 1
@<TRIPOS>MOLECULE
ZINC22022778
   58    61     0     0     0
SMALL
USER_CHARGES
ethyl (4S)-2-amino-7,7-dimethyl-1-(4-nitrophenyl)-5-oxo-4-(2-thienyl)-6,8-dihydro-4H-quinoline-3-carboxylate
@<TRIPOS>ATOM
      1 C1          5.9678   -5.0743   -0.6852 C.3       1 <0>        -0.1545
      2 C2          4.6118   -4.4692   -0.3165 C.3       1 <0>         0.0611
      3 O1          4.6666   -3.0493   -0.4684 O.3       1 <0>        -0.3372
      4 C3          3.5424   -2.3579   -0.1807 C.2       1 <0>         0.5473
      5 O2          2.5426   -2.9475    0.1894 O.2       1 <0>        -0.5576
      6 C4          3.5261   -0.9616   -0.3080 C.2       1 <0>        -0.3816
      7 C5          2.4242   -0.2659    0.0861 C.2       1 <0>         0.5341
      8 N1          2.3975    1.1036   -0.0265 N.pl3     1 <0>        -0.4986
      9 C6          3.5627    1.8157   -0.1492 C.2       1 <0>         0.2159
     10 C7          4.7026    1.2111   -0.5392 C.2       1 <0>        -0.2424
     11 C8          4.7232   -0.2583   -0.8769 C.3       1 <0>         0.1415
     12 H1          5.6262   -0.7068   -0.4371 H         1 <0>         0.1087
     13 C9          4.7261   -0.4210   -2.3751 C.2       1 <0>        -0.1014
     14 C10         5.6613   -0.9970   -3.1693 C.2       1 <0>        -0.1502
     15 C11         5.4504   -1.0341   -4.5349 C.2       1 <0>        -0.1475
     16 C12         4.3145   -0.4932   -5.0394 C.2       1 <0>        -0.1823
     17 S1          3.4951    0.0880   -3.5636 S.3       1 <0>         0.0031
     18 C13         5.9058    1.9313   -0.6465 C.2       1 <0>         0.4037
     19 O3          6.9126    1.3583   -1.0135 O.2       1 <0>        -0.4522
     20 C14         5.9702    3.3973   -0.3162 C.3       1 <0>        -0.1616
     21 C15         4.8971    3.7207    0.7287 C.3       1 <0>        -0.0501
     22 C16         3.5366    3.2907    0.1756 C.3       1 <0>        -0.0905
     23 C17         5.1914    2.9569    2.0213 C.3       1 <0>        -0.1547
     24 C18         4.8904    5.2245    1.0103 C.3       1 <0>        -0.1436
     25 C19         1.1700    1.7766   -0.0216 C.ar      1 <0>         0.1685
     26 C20         0.7170    2.4062   -1.1736 C.ar      1 <0>        -0.1053
     27 C21        -0.4916    3.0746   -1.1637 C.ar      1 <0>        -0.0332
     28 C22        -1.2560    3.1071   -0.0118 C.ar      1 <0>        -0.0353
     29 C23        -0.8075    2.4815    1.1371 C.ar      1 <0>        -0.0341
     30 C24         0.4028    1.8164    1.1354 C.ar      1 <0>        -0.1301
     31 N2         -2.5539    3.8187   -0.0066 N.pl3     1 <0>         0.0230
     32 O4         -3.2257    3.8528    1.0088 O.2       1 <0>        -0.1481
     33 O5         -2.9502    4.3702   -1.0177 O.3       1 <0>        -0.1473
     34 N3          1.3399   -0.9322    0.5955 N.pl3     1 <0>        -0.8483
     35 H2          5.9256   -6.1673   -0.5683 H         1 <0>         0.0792
     36 H3          6.7445   -4.6644   -0.0228 H         1 <0>         0.0673
     37 H4          6.2082   -4.8263   -1.7296 H         1 <0>         0.0673
     38 H5          3.8351   -4.8791   -0.9789 H         1 <0>         0.0657
     39 H6          4.3713   -4.7172    0.7279 H         1 <0>         0.0659
     40 H7          6.5581   -1.4204   -2.7416 H         1 <0>         0.1330
     41 H8          6.1795   -1.4875   -5.1900 H         1 <0>         0.1308
     42 H9          3.9879   -0.4332   -6.0671 H         1 <0>         0.1813
     43 H10         6.9649    3.6391    0.0865 H         1 <0>         0.1028
     44 H11         5.7903    3.9867   -1.2274 H         1 <0>         0.1042
     45 H12         3.3165    3.8633   -0.7374 H         1 <0>         0.1025
     46 H13         2.7584    3.4868    0.9279 H         1 <0>         0.0911
     47 H14         4.4196    3.1910    2.7693 H         1 <0>         0.0611
     48 H15         6.1778    3.2546    2.4066 H         1 <0>         0.0671
     49 H16         5.1884    1.8760    1.8172 H         1 <0>         0.0602
     50 H17         4.1193    5.4536    1.7606 H         1 <0>         0.0618
     51 H18         4.6714    5.7706    0.0809 H         1 <0>         0.0622
     52 H19         5.8757    5.5304    1.3919 H         1 <0>         0.0678
     53 H20         1.3112    2.3771   -2.0749 H         1 <0>         0.1581
     54 H21        -0.8423    3.5683   -2.0580 H         1 <0>         0.1665
     55 H22        -1.4046    2.5129    2.0365 H         1 <0>         0.1667
     56 H23         0.7525    1.3280    2.0330 H         1 <0>         0.1583
     57 H24         0.4492   -0.3708    0.9141 H         1 <0>         0.4025
     58 H25         1.3605   -2.0283    0.6856 H         1 <0>         0.4578
@<TRIPOS>BOND
     1    1    2 1
     2    1   35 1
     3    1   36 1
     4    1   37 1
     5    2    3 1
     6    2   38 1
     7    2   39 1
     8    3    4 1
     9    4    5 2
    10    4    6 1
    11    6   11 1
    12    6    7 2
    13    7    8 1
    14    7   34 1
    15    8    9 1
    16    8   25 1
    17    9   22 1
    18    9   10 2
    19   10   11 1
    20   10   18 1
    21   11   12 1
    22   11   13 1
    23   13   17 1
    24   13   14 2
    25   14   15 1
    26   14   40 1
    27   15   16 2
    28   15   41 1
    29   16   17 1
    30   16   42 1
    31   18   19 2
    32   18   20 1
    33   20   21 1
    34   20   43 1
    35   20   44 1
    36   21   22 1
    37   21   23 1
    38   21   24 1
    39   22   45 1
    40   22   46 1
    41   23   47 1
    42   23   48 1
    43   23   49 1
    44   24   50 1
    45   24   51 1
    46   24   52 1
    47   25   30 ar
    48   25   26 ar
    49   26   27 ar
    50   26   53 1
    51   27   28 ar
    52   27   54 1
    53   28   29 ar
    54   28   31 1
    55   29   30 ar
    56   29   55 1
    57   30   56 1
    58   31   32 2
    59   31   33 1
    60   34   57 1
    61   34   58 1
@<TRIPOS>MOLECULE
ZINC31635145
   57    60     0     0     0
SMALL
USER_CHARGES
2-[(4S)-4-(4-chlorophenyl)-4-ethyl-2,5-dioxo-imidazolidin-1-yl]-N-(3,5-dimethyl-1-phenyl-pyrazol-4-yl)acetamide
@<TRIPOS>ATOM
      1 C1         -0.3118    4.0227   -2.1283 C.3       1 <0>        -0.1616
      2 C2         -0.5775    4.6875   -0.7762 C.3       1 <0>        -0.1172
      3 C3         -0.2681    3.6973    0.3485 C.3       1 <0>         0.1605
      4 C4          1.2058    3.3434    0.3568 C.2       1 <0>         0.5421
      5 O1          2.1392    4.0981    0.5267 O.2       1 <0>        -0.4544
      6 N1          1.2628    2.0152    0.1353 N.am      1 <0>        -0.5605
      7 C5          0.0425    1.4864   -0.0103 C.2       1 <0>         0.7214
      8 O2         -0.1621    0.3067   -0.2188 O.2       1 <0>        -0.5364
      9 N2         -0.9325    2.4074    0.0942 N.am      1 <0>        -0.7247
     10 C6          2.5072    1.2455    0.0636 C.3       1 <0>         0.1015
     11 C7          2.9992    1.2175   -1.3605 C.2       1 <0>         0.4925
     12 O3          2.3721    1.7847   -2.2302 O.2       1 <0>        -0.5003
     13 N3          4.1361    0.5621   -1.6679 N.am      1 <0>        -0.6472
     14 C8          4.5259    0.4221   -3.0129 C.2       1 <0>         0.0092
     15 C9          3.6652    0.3282   -4.1171 C.2       1 <0>         0.1035
     16 N4          4.3927    0.2082   -5.1982 N.2       1 <0>        -0.2803
     17 N5          5.7429    0.2209   -4.8257 N.pl3     1 <0>        -0.3233
     18 C10         5.8015    0.3596   -3.4732 C.2       1 <0>         0.0658
     19 C11         7.0542    0.4277   -2.6381 C.3       1 <0>        -0.1019
     20 C12         6.8392    0.1155   -5.6926 C.ar      1 <0>         0.1567
     21 C13         6.8363    0.7949   -6.9035 C.ar      1 <0>        -0.1087
     22 C14         7.9207    0.6940   -7.7529 C.ar      1 <0>        -0.0999
     23 C15         9.0032   -0.0925   -7.4040 C.ar      1 <0>        -0.1192
     24 C16         9.0066   -0.7749   -6.2013 C.ar      1 <0>        -0.0998
     25 C17         7.9278   -0.6731   -5.3449 C.ar      1 <0>        -0.1296
     26 C18         2.1594    0.3597   -4.0666 C.3       1 <0>        -0.1041
     27 C19        -0.6848    4.2640    1.6812 C.ar      1 <0>        -0.0945
     28 C20        -0.6174    5.6267    1.9041 C.ar      1 <0>        -0.0786
     29 C21        -1.0048    6.1476    3.1244 C.ar      1 <0>        -0.1075
     30 C22        -1.4494    5.3038    4.1266 C.ar      1 <0>        -0.0243
     31 C23        -1.5113    3.9396    3.9048 C.ar      1 <0>        -0.1085
     32 C24        -1.1290    3.4204    2.6823 C.ar      1 <0>        -0.0874
     33 Cl1        -1.9289    5.9566    5.6621 Cl        1 <0>        -0.0622
     34 H1         -0.5342    4.7345   -2.9369 H         1 <0>         0.0659
     35 H2         -0.9542    3.1360   -2.2334 H         1 <0>         0.0624
     36 H3          0.7440    3.7196   -2.1867 H         1 <0>         0.0656
     37 H4          0.0649    5.5742   -0.6711 H         1 <0>         0.0894
     38 H5         -1.6333    4.9906   -0.7178 H         1 <0>         0.0900
     39 H6         -2.0293    2.3574    0.0274 H         1 <0>         0.4723
     40 H7          3.2670    1.7163    0.7048 H         1 <0>         0.1289
     41 H8          2.3227    0.2172    0.4081 H         1 <0>         0.1318
     42 H9          4.7593    0.1366   -0.8675 H         1 <0>         0.4331
     43 H10         7.9354    0.3507   -3.2920 H         1 <0>         0.0809
     44 H11         7.0594   -0.4025   -1.9165 H         1 <0>         0.0865
     45 H12         7.0821    1.3846   -2.0963 H         1 <0>         0.0863
     46 H13         5.9889    1.4052   -7.1788 H         1 <0>         0.1322
     47 H14         7.9210    1.2257   -8.6929 H         1 <0>         0.1333
     48 H15         9.8479   -0.1737   -8.0720 H         1 <0>         0.1306
     49 H16         9.8535   -1.3884   -5.9315 H         1 <0>         0.1340
     50 H17         7.9311   -1.2060   -4.4055 H         1 <0>         0.1317
     51 H18         1.7563    0.2661   -5.0858 H         1 <0>         0.0609
     52 H19         1.8271    1.3116   -3.6268 H         1 <0>         0.1428
     53 H20         1.7957   -0.4757   -3.4503 H         1 <0>         0.0677
     54 H21        -0.2662    6.2848    1.1232 H         1 <0>         0.1404
     55 H22        -0.9563    7.2126    3.2969 H         1 <0>         0.1401
     56 H23        -1.8580    3.2804    4.6870 H         1 <0>         0.1383
     57 H24        -1.1769    2.3555    2.5092 H         1 <0>         0.1340
@<TRIPOS>BOND
     1    1    2 1
     2    1   34 1
     3    1   35 1
     4    1   36 1
     5    2    3 1
     6    2   37 1
     7    2   38 1
     8    3    9 1
     9    3    4 1
    10    3   27 1
    11    4    5 2
    12    4    6 am
    13    6    7 am
    14    6   10 1
    15    7    8 2
    16    7    9 am
    17    9   39 1
    18   10   11 1
    19   10   40 1
    20   10   41 1
    21   11   12 2
    22   11   13 am
    23   13   14 1
    24   13   42 1
    25   14   18 2
    26   14   15 1
    27   15   16 2
    28   15   26 1
    29   16   17 1
    30   17   18 1
    31   17   20 1
    32   18   19 1
    33   19   43 1
    34   19   44 1
    35   19   45 1
    36   20   25 ar
    37   20   21 ar
    38   21   22 ar
    39   21   46 1
    40   22   23 ar
    41   22   47 1
    42   23   24 ar
    43   23   48 1
    44   24   25 ar
    45   24   49 1
    46   25   50 1
    47   26   51 1
    48   26   52 1
    49   26   53 1
    50   27   32 ar
    51   27   28 ar
    52   28   29 ar
    53   28   54 1
    54   29   30 ar
    55   29   55 1
    56   30   31 ar
    57   30   33 1
    58   31   32 ar
    59   31   56 1
    60   32   57 1
@<TRIPOS>MOLECULE
ZINC21973795
   62    65     0     0     0
SMALL
USER_CHARGES

@<TRIPOS>ATOM
      1 C1          0.9065    1.4687    0.0311 C.3       1 <0>        -0.1464
      2 C2          0.7419   -0.0543    0.0210 C.3       1 <0>        -0.0970
      3 H1          1.2900   -0.4678   -0.8215 H         1 <0>         0.0909
      4 C3         -0.7436   -0.4009   -0.1010 C.3       1 <0>        -0.1076
      5 C4         -0.9145   -1.9129   -0.1614 C.3       1 <0>         0.1397
      6 C5         -0.2534   -2.6270    1.0006 C.3       1 <0>        -0.1042
      7 C6          1.1438   -2.1484    1.3545 C.3       1 <0>        -0.0543
      8 C7          1.2675   -0.6292    1.3345 C.3       1 <0>        -0.1035
      9 C8          1.4641   -2.6272    2.7873 C.3       1 <0>        -0.1457
     10 C9          2.1842   -2.7727    0.4202 C.3       1 <0>        -0.1610
     11 C10        -0.4617   -2.4527   -1.4953 C.2       1 <0>         0.5385
     12 O1          0.6092   -2.2987   -2.0429 O.2       1 <0>        -0.4457
     13 N1         -1.5152   -3.1380   -1.9907 N.am      1 <0>        -0.5709
     14 C11        -2.5987   -2.9951   -1.2199 C.2       1 <0>         0.7090
     15 O2         -3.6748   -3.5052   -1.4654 O.2       1 <0>        -0.5367
     16 N2         -2.3613   -2.2266   -0.1432 N.am      1 <0>        -0.7213
     17 C12        -1.4726   -3.9364   -3.2179 C.3       1 <0>         0.1308
     18 C13        -1.0714   -5.3501   -2.8838 C.2       1 <0>         0.4544
     19 O3         -0.8443   -5.6589   -1.7380 O.2       1 <0>        -0.4918
     20 O4         -0.9663   -6.2662   -3.8592 O.3       1 <0>        -0.3221
     21 C14        -0.5817   -7.5864   -3.4705 C.3       1 <0>         0.0501
     22 C15        -0.5165   -8.4700   -4.6896 C.2       1 <0>         0.5168
     23 O5         -0.7740   -8.0140   -5.7836 O.2       1 <0>        -0.4897
     24 N3         -0.1719   -9.7670   -4.5642 N.am      1 <0>        -0.6702
     25 C16        -0.2182  -10.6136   -5.6766 C.ar      1 <0>         0.1555
     26 C17        -1.1972  -10.4157   -6.6576 C.ar      1 <0>        -0.1153
     27 C18        -1.2657  -11.2229   -7.7489 C.ar      1 <0>        -0.0845
     28 C19        -0.3439  -12.2734   -7.9026 C.ar      1 <0>        -0.0627
     29 C20        -0.3904  -13.1234   -9.0208 C.ar      1 <0>        -0.1002
     30 C21         0.5168  -14.1309   -9.1399 C.ar      1 <0>        -0.1208
     31 C22         1.4949  -14.3348   -8.1682 C.ar      1 <0>        -0.1104
     32 C23         1.5707  -13.5323   -7.0718 C.ar      1 <0>        -0.1110
     33 C24         0.6509  -12.4807   -6.9144 C.ar      1 <0>        -0.0320
     34 C25         0.7033  -11.6296   -5.7984 C.ar      1 <0>        -0.1379
     35 H2          1.9632    1.7194    0.1238 H         1 <0>         0.0598
     36 H3          0.5151    1.8826   -0.8983 H         1 <0>         0.0560
     37 H4          0.3582    1.8878    0.8748 H         1 <0>         0.0558
     38 H5         -1.2801   -0.0072    0.7628 H         1 <0>         0.0883
     39 H6         -1.1461    0.0474   -1.0102 H         1 <0>         0.0756
     40 H7         -0.8979   -2.5246    1.8874 H         1 <0>         0.0860
     41 H8         -0.2108   -3.7031    0.7710 H         1 <0>         0.0753
     42 H9          2.3165   -0.3478    1.4575 H         1 <0>         0.0704
     43 H10         0.6954   -0.2078    2.1657 H         1 <0>         0.0654
     44 H11         1.4182   -3.7156    2.8255 H         1 <0>         0.0554
     45 H12         2.4643   -2.2957    3.0661 H         1 <0>         0.0601
     46 H13         0.7358   -2.2083    3.4817 H         1 <0>         0.0555
     47 H14         1.9652   -2.4885   -0.6090 H         1 <0>         0.0784
     48 H15         3.1775   -2.4156    0.6923 H         1 <0>         0.0575
     49 H16         2.1504   -3.8582    0.5125 H         1 <0>         0.0510
     50 H17        -2.9993   -1.9290    0.5211 H         1 <0>         0.4419
     51 H18        -2.4579   -3.9389   -3.6841 H         1 <0>         0.1463
     52 H19        -0.7459   -3.5056   -3.9066 H         1 <0>         0.1456
     53 H20         0.3975   -7.5538   -2.9927 H         1 <0>         0.1056
     54 H21        -1.3145   -7.9871   -2.7702 H         1 <0>         0.1073
     55 H22         0.1081  -10.1132   -3.7025 H         1 <0>         0.4147
     56 H23        -1.9082   -9.6105   -6.5454 H         1 <0>         0.1367
     57 H24        -2.0272  -11.0579   -8.4967 H         1 <0>         0.1332
     58 H25        -1.1428  -12.9781   -9.7818 H         1 <0>         0.1281
     59 H26         0.4780  -14.7825  -10.0003 H         1 <0>         0.1239
     60 H27         2.2029  -15.1417   -8.2869 H         1 <0>         0.1240
     61 H28         2.3334  -13.7023   -6.3263 H         1 <0>         0.1271
     62 H29         1.4581  -11.7734   -5.0395 H         1 <0>         0.1321
@<TRIPOS>BOND
     1    1    2 1
     2    1   35 1
     3    1   36 1
     4    1   37 1
     5    2    3 1
     6    2    8 1
     7    2    4 1
     8    4    5 1
     9    4   38 1
    10    4   39 1
    11    5   16 1
    12    5    6 1
    13    5   11 1
    14    6    7 1
    15    6   40 1
    16    6   41 1
    17    7    8 1
    18    7    9 1
    19    7   10 1
    20    8   42 1
    21    8   43 1
    22    9   44 1
    23    9   45 1
    24    9   46 1
    25   10   47 1
    26   10   48 1
    27   10   49 1
    28   11   12 2
    29   11   13 am
    30   13   14 am
    31   13   17 1
    32   14   15 2
    33   14   16 am
    34   16   50 1
    35   17   18 1
    36   17   51 1
    37   17   52 1
    38   18   19 2
    39   18   20 1
    40   20   21 1
    41   21   22 1
    42   21   53 1
    43   21   54 1
    44   22   23 2
    45   22   24 am
    46   24   25 1
    47   24   55 1
    48   25   34 ar
    49   25   26 ar
    50   26   27 ar
    51   26   56 1
    52   27   28 ar
    53   27   57 1
    54   28   33 ar
    55   28   29 ar
    56   29   30 ar
    57   29   58 1
    58   30   31 ar
    59   30   59 1
    60   31   32 ar
    61   31   60 1
    62   32   33 ar
    63   32   61 1
    64   33   34 ar
    65   34   62 1
@<TRIPOS>MOLECULE
ZINC09782269
   60    64     0     0     0
SMALL
USER_CHARGES
4-[2-[2-(1H-indol-3-yl)-2-phenyl-ethyl]aminopropanoyl]-1,3-dihydroquinoxalin-2-one
@<TRIPOS>ATOM
      1 C1          0.0021   -0.0041    0.0020 C.3       1 <0>        -0.1945
      2 C2         -0.0187    1.5258    0.0104 C.3       1 <0>         0.0078
      3 H1         -0.5289    1.8773    0.9072 H         1 <0>         0.1681
      4 C3          1.3951    2.0474   -0.0003 C.2       1 <0>         0.5091
      5 O1          1.7736    2.7549   -0.9098 O.2       1 <0>        -0.4978
      6 N1          2.2390    1.7277    1.0008 N.am      1 <0>        -0.5312
      7 C4          1.8048    0.8717    2.1150 C.3       1 <0>         0.0770
      8 C5          2.3425    1.4346    3.4058 C.2       1 <0>         0.5094
      9 O2          1.7317    1.2546    4.4381 O.2       1 <0>        -0.4980
     10 N2          3.4921    2.1351    3.4268 N.am      1 <0>        -0.6536
     11 C6          4.1893    2.4012    2.2434 C.ar      1 <0>         0.1408
     12 C7          3.5621    2.1963    1.0104 C.ar      1 <0>         0.0855
     13 C8          4.2351    2.4656   -0.1645 C.ar      1 <0>        -0.0817
     14 C9          5.5390    2.9271   -0.1196 C.ar      1 <0>        -0.1177
     15 C10         6.1655    3.1230    1.0973 C.ar      1 <0>        -0.0808
     16 C11         5.4955    2.8616    2.2787 C.ar      1 <0>        -0.1299
     17 C12        -2.1790    2.0542   -0.9468 C.3       1 <0>        -0.0004
     18 C13        -2.8831    2.5648   -2.2055 C.3       1 <0>         0.0238
     19 H2         -2.5974    1.9477   -3.0574 H         1 <0>         0.1083
     20 C14        -2.4792    3.9938   -2.4625 C.ar      1 <0>        -0.1231
     21 C15        -2.7453    4.9677   -1.5182 C.ar      1 <0>        -0.1180
     22 C16        -2.3709    6.2777   -1.7520 C.ar      1 <0>        -0.1111
     23 C17        -1.7389    6.6154   -2.9341 C.ar      1 <0>        -0.1032
     24 C18        -1.4771    5.6423   -3.8804 C.ar      1 <0>        -0.1079
     25 C19        -1.8476    4.3316   -3.6448 C.ar      1 <0>        -0.1100
     26 C20        -4.3757    2.4920   -2.0107 C.2       1 <0>        -0.1861
     27 C21        -5.0880    3.1153   -1.0588 C.2       1 <0>         0.0766
     28 N3         -6.4159    2.8156   -1.1983 N.pl3     1 <0>        -0.5861
     29 H3         -7.1256    3.1508   -0.6283 H         1 <0>         0.4227
     30 C22        -6.5938    1.9628   -2.2646 C.ar      1 <0>         0.0965
     31 C23        -5.3237    1.7227   -2.8203 C.ar      1 <0>        -0.0946
     32 C24        -5.1956    0.8831   -3.9281 C.ar      1 <0>        -0.0809
     33 C25        -6.3063    0.2979   -4.4679 C.ar      1 <0>        -0.1325
     34 C26        -7.5613    0.5311   -3.9231 C.ar      1 <0>        -0.0920
     35 C27        -7.7106    1.3563   -2.8298 C.ar      1 <0>        -0.1233
     36 H4         -1.0205   -0.3814    0.0098 H         1 <0>         0.1058
     37 H5          0.5123   -0.3556   -0.8948 H         1 <0>         0.0969
     38 H6          0.5293   -0.3651    0.8851 H         1 <0>         0.1148
     39 H7          0.7158    0.8476    2.1534 H         1 <0>         0.1329
     40 H8          2.1883   -0.1382    1.9699 H         1 <0>         0.1296
     41 H9          3.8407    2.4592    4.2720 H         1 <0>         0.4233
     42 H10         3.7467    2.3123   -1.1155 H         1 <0>         0.1475
     43 H11         6.0688    3.1345   -1.0375 H         1 <0>         0.1387
     44 H12         7.1838    3.4818    1.1254 H         1 <0>         0.1402
     45 H13         5.9894    3.0163    3.2266 H         1 <0>         0.1419
     46 H14        -2.5381    1.0526   -0.7106 H         1 <0>         0.1437
     47 H15        -2.3940    2.7232   -0.1135 H         1 <0>         0.1322
     48 H16        -3.2428    4.7046   -0.5964 H         1 <0>         0.1213
     49 H17        -2.5752    7.0379   -1.0126 H         1 <0>         0.1285
     50 H18        -1.4494    7.6395   -3.1183 H         1 <0>         0.1296
     51 H19        -0.9833    5.9062   -4.8040 H         1 <0>         0.1308
     52 H20        -1.6434    3.5714   -4.3842 H         1 <0>         0.1274
     53 H21        -4.6746    3.7600   -0.2974 H         1 <0>         0.1683
     54 H22        -4.2222    0.6970   -4.3573 H         1 <0>         0.1198
     55 H23        -6.2067   -0.3516   -5.3250 H         1 <0>         0.1273
     56 H24        -8.4297    0.0608   -4.3604 H         1 <0>         0.1312
     57 H25        -8.6915    1.5319   -2.4134 H         1 <0>         0.1251
     58 N4         -0.7244    2.0153   -1.1889 N.4       1 <0>        -0.5054
     59 H26        -0.5289    1.3869   -1.9770 H         1 <0>         0.4366
     60 H27        -0.3932    2.9606   -1.4145 H         1 <0>         0.4409
@<TRIPOS>BOND
     1    1    2 1
     2    1   36 1
     3    1   37 1
     4    1   38 1
     5    2    3 1
     6    2    4 1
     7    2   58 1
     8    4    5 2
     9    4    6 am
    10    6   12 1
    11    6    7 1
    12    7    8 1
    13    7   39 1
    14    7   40 1
    15    8    9 2
    16    8   10 am
    17   10   11 1
    18   10   41 1
    19   11   16 ar
    20   11   12 ar
    21   12   13 ar
    22   13   14 ar
    23   13   42 1
    24   14   15 ar
    25   14   43 1
    26   15   16 ar
    27   15   44 1
    28   16   45 1
    29   17   18 1
    30   17   46 1
    31   17   47 1
    32   17   58 1
    33   18   19 1
    34   18   20 1
    35   18   26 1
    36   20   25 ar
    37   20   21 ar
    38   21   22 ar
    39   21   48 1
    40   22   23 ar
    41   22   49 1
    42   23   24 ar
    43   23   50 1
    44   24   25 ar
    45   24   51 1
    46   25   52 1
    47   26   31 1
    48   26   27 2
    49   27   28 1
    50   27   53 1
    51   28   29 1
    52   28   30 1
    53   30   35 ar
    54   30   31 ar
    55   31   32 ar
    56   32   33 ar
    57   32   54 1
    58   33   34 ar
    59   33   55 1
    60   34   35 ar
    61   34   56 1
    62   35   57 1
    63   58   59 1
    64   58   60 1
@<TRIPOS>MOLECULE
ZINC06919961
   63    65     0     0     0
SMALL
USER_CHARGES

@<TRIPOS>ATOM
      1 C1         -0.0187    1.5258    0.0104 C.3       1 <0>        -0.1863
      2 C2          0.0021   -0.0041    0.0020 C.3       1 <0>         0.0273
      3 H1         -1.0207   -0.3809    0.0098 H         1 <0>         0.1361
      4 C3          0.7171   -0.4969   -1.2579 C.3       1 <0>        -0.1408
      5 C4          0.7351   -2.0282   -1.2620 C.3       1 <0>        -0.1396
      6 C5          1.4100   -2.5244    0.0200 C.3       1 <0>        -0.1456
      7 C6          0.6693   -1.9564    1.2325 C.3       1 <0>        -0.0119
      8 N1          0.7108   -0.4897    1.1921 N.4       1 <0>        -0.3796
      9 C7          0.0674    0.0497    2.3975 C.3       1 <0>        -0.0134
     10 C8          0.8774   -0.3529    3.6315 C.3       1 <0>        -0.1623
     11 C9          0.2073    0.2089    4.8870 C.3       1 <0>         0.1248
     12 N2          0.9828   -0.1766    6.0686 N.am      1 <0>        -0.7354
     13 C10         0.5789    0.2093    7.2951 C.2       1 <0>         0.5704
     14 O1         -0.4292    0.8774    7.4210 O.2       1 <0>        -0.5295
     15 C11         1.3599   -0.1789    8.4850 C.ar      1 <0>        -0.1597
     16 C12         2.5218   -0.9421    8.3394 C.ar      1 <0>        -0.0652
     17 C13         3.2494   -1.3095    9.4507 C.ar      1 <0>        -0.1546
     18 C14         2.8294   -0.9189   10.7141 C.ar      1 <0>         0.2049
     19 C15         1.6726   -0.1481   10.8686 C.ar      1 <0>         0.0954
     20 C16         0.9406    0.2215    9.7571 C.ar      1 <0>        -0.0547
     21 N3          1.2756    0.2593   12.1481 N.am      1 <0>        -0.6561
     22 C17         2.0861    0.0876   13.2083 C.2       1 <0>         0.5114
     23 O2          1.6765    0.3337   14.3232 O.2       1 <0>        -0.5099
     24 C18         3.4982   -0.4080   13.0246 C.3       1 <0>         0.1413
     25 H2          3.8089   -0.9606   13.9112 H         1 <0>         0.1287
     26 N4          3.5472   -1.2926   11.8518 N.pl3     1 <0>        -0.7374
     27 C19         4.4346    0.7827   12.8093 C.3       1 <0>        -0.1267
     28 C20         5.8814    0.2890   12.7475 C.3       1 <0>        -0.0884
     29 C21         6.8058    1.4601   12.4085 C.3       1 <0>        -0.1487
     30 C22         6.2783   -0.2981   14.1035 C.3       1 <0>        -0.1556
     31 H3          1.0039    1.9031    0.0027 H         1 <0>         0.0813
     32 H4         -0.5459    1.8868   -0.8726 H         1 <0>         0.1064
     33 H5         -0.5289    1.8773    0.9072 H         1 <0>         0.0837
     34 H6          0.1888   -0.1368   -2.1407 H         1 <0>         0.1119
     35 H7          1.7401   -0.1209   -1.2665 H         1 <0>         0.0879
     36 H8         -0.2870   -2.4047   -1.3051 H         1 <0>         0.0820
     37 H9          1.2925   -2.3839   -2.1285 H         1 <0>         0.0950
     38 H10         1.3770   -3.6135    0.0506 H         1 <0>         0.1123
     39 H11         2.4474   -2.1904    0.0379 H         1 <0>         0.0873
     40 H12        -0.3678   -2.2912    1.2138 H         1 <0>         0.1292
     41 H13         1.1471   -2.3079    2.1470 H         1 <0>         0.1311
     42 H14         0.0236    1.1368    2.3305 H         1 <0>         0.1392
     43 H15        -0.9432   -0.3502    2.4799 H         1 <0>         0.1343
     44 H16         0.9212   -1.4400    3.6986 H         1 <0>         0.0946
     45 H17         1.8880    0.0471    3.5492 H         1 <0>         0.0949
     46 H18         0.1635    1.2960    4.8199 H         1 <0>         0.0794
     47 H19        -0.8033   -0.1910    4.9694 H         1 <0>         0.0793
     48 H20         1.7871   -0.7096    5.9682 H         1 <0>         0.4021
     49 H21         2.8493   -1.2443    7.3556 H         1 <0>         0.1260
     50 H22         4.1458   -1.9013    9.3383 H         1 <0>         0.1384
     51 H23         0.0448    0.8141    9.8708 H         1 <0>         0.1435
     52 H24         0.4059    0.6707   12.2715 H         1 <0>         0.4149
     53 H25         4.0637   -2.1135   11.8679 H         1 <0>         0.4153
     54 H26         4.1802    1.2804   11.8735 H         1 <0>         0.0708
     55 H27         4.3252    1.4849   13.6357 H         1 <0>         0.0835
     56 H28         5.9708   -0.4788   11.9790 H         1 <0>         0.0733
     57 H29         6.7164    2.2278   13.1771 H         1 <0>         0.0572
     58 H30         7.8366    1.1084   12.3646 H         1 <0>         0.0587
     59 H31         6.5231    1.8783   11.4425 H         1 <0>         0.0534
     60 H32         7.3090   -0.6498   14.0595 H         1 <0>         0.0596
     61 H33         6.1888    0.4697   14.8721 H         1 <0>         0.0598
     62 H34         5.6197   -1.1324   14.3450 H         1 <0>         0.0544
     63 H35         1.6711   -0.1818    1.1594 H         1 <0>         0.4203
@<TRIPOS>BOND
     1    1    2 1
     2    1   31 1
     3    1   32 1
     4    1   33 1
     5    2    3 1
     6    2    8 1
     7    2    4 1
     8    4    5 1
     9    4   34 1
    10    4   35 1
    11    5    6 1
    12    5   36 1
    13    5   37 1
    14    6    7 1
    15    6   38 1
    16    6   39 1
    17    7    8 1
    18    7   40 1
    19    7   41 1
    20    8    9 1
    21    8   63 1
    22    9   10 1
    23    9   42 1
    24    9   43 1
    25   10   11 1
    26   10   44 1
    27   10   45 1
    28   11   12 1
    29   11   46 1
    30   11   47 1
    31   12   13 am
    32   12   48 1
    33   13   14 2
    34   13   15 1
    35   15   20 ar
    36   15   16 ar
    37   16   17 ar
    38   16   49 1
    39   17   18 ar
    40   17   50 1
    41   18   26 1
    42   18   19 ar
    43   19   20 ar
    44   19   21 1
    45   20   51 1
    46   21   22 am
    47   21   52 1
    48   22   23 2
    49   22   24 1
    50   24   25 1
    51   24   26 1
    52   24   27 1
    53   26   53 1
    54   27   28 1
    55   27   54 1
    56   27   55 1
    57   28   29 1
    58   28   30 1
    59   28   56 1
    60   29   57 1
    61   29   58 1
    62   29   59 1
    63   30   60 1
    64   30   61 1
    65   30   62 1
@<TRIPOS>MOLECULE
ZINC55027387
   69    71     0     0     0
SMALL
USER_CHARGES

@<TRIPOS>ATOM
      1 C1          0.6293    1.3332   -0.3969 C.3       1 <0>        -0.1789
      2 C2          0.0021   -0.0041    0.0020 C.3       1 <0>         0.0045
      3 H1         -1.0272    0.1584    0.3218 H         1 <0>         0.1570
      4 C3          0.7901   -0.6106    1.1343 C.2       1 <0>         0.5014
      5 O1          1.6894   -1.3894    0.8984 O.2       1 <0>        -0.5212
      6 N1          0.4956   -0.2876    2.4092 N.am      1 <0>        -0.7003
      7 C4          1.2616   -0.8772    3.5100 C.3       1 <0>         0.1177
      8 C5          0.7288   -0.3480    4.8430 C.3       1 <0>        -0.1004
      9 C6         -0.7086   -0.8314    5.0457 C.3       1 <0>        -0.1148
     10 C7         -1.2414   -0.3023    6.3788 C.3       1 <0>        -0.1215
     11 C8         -0.3637   -0.8194    7.5203 C.3       1 <0>        -0.1242
     12 C9          1.0737   -0.3360    7.3176 C.3       1 <0>        -0.1207
     13 C10         1.6066   -0.8651    5.9845 C.3       1 <0>        -0.1127
     14 N2          0.0188   -0.9158   -1.1497 N.4       1 <0>        -0.3715
     15 C11        -0.7111   -0.3042   -2.2667 C.3       1 <0>        -0.0058
     16 C12        -0.6278   -1.2137   -3.4944 C.3       1 <0>        -0.1546
     17 C13        -1.2494   -2.5726   -3.1593 C.3       1 <0>         0.1564
     18 C14        -0.5285   -3.1675   -1.9463 C.3       1 <0>        -0.1569
     19 C15        -0.6155   -2.1856   -0.7759 C.3       1 <0>        -0.0073
     20 N3         -1.1049   -3.4734   -4.3055 N.am      1 <0>        -0.7458
     21 C16        -1.9648   -4.4981   -4.4700 C.2       1 <0>         0.7063
     22 O2         -2.8606   -4.6748   -3.6671 O.2       1 <0>        -0.5835
     23 N4         -1.8318   -5.3268   -5.5245 N.am      1 <0>        -0.7364
     24 C17        -2.7666   -6.4406   -5.7033 C.3       1 <0>         0.1622
     25 C18        -2.2901   -7.6426   -4.8852 C.3       1 <0>        -0.1279
     26 C19        -3.2664   -8.8058   -5.0719 C.3       1 <0>        -0.1186
     27 C20        -3.3271   -9.1880   -6.5522 C.3       1 <0>        -0.1244
     28 C21        -3.8035   -7.9861   -7.3702 C.3       1 <0>        -0.1172
     29 C22        -2.8273   -6.8229   -7.1835 C.3       1 <0>        -0.1268
     30 H2          1.6586    1.1707   -0.7168 H         1 <0>         0.0907
     31 H3          0.0593    1.7719   -1.2159 H         1 <0>         0.0988
     32 H4          0.6169    2.0097    0.4576 H         1 <0>         0.1110
     33 H5         -0.2237    0.3353    2.5980 H         1 <0>         0.4095
     34 H6          1.1601   -1.9621    3.4831 H         1 <0>         0.0801
     35 H7          2.3128   -0.6079    3.4063 H         1 <0>         0.0806
     36 H8          0.7479    0.7418    4.8351 H         1 <0>         0.0811
     37 H9         -1.3339   -0.4630    4.2325 H         1 <0>         0.0561
     38 H10        -0.7277   -1.9213    5.0537 H         1 <0>         0.0670
     39 H11        -1.2223    0.7875    6.3708 H         1 <0>         0.0633
     40 H12        -2.2654   -0.6467    6.5232 H         1 <0>         0.0655
     41 H13        -0.7433   -0.4424    8.4699 H         1 <0>         0.0661
     42 H14        -0.3828   -1.9092    7.5282 H         1 <0>         0.0635
     43 H15         1.0928    0.7538    7.3096 H         1 <0>         0.0638
     44 H16         1.6991   -0.7044    8.1308 H         1 <0>         0.0684
     45 H17         1.5875   -1.9549    5.9925 H         1 <0>         0.0681
     46 H18         2.6306   -0.5207    5.8401 H         1 <0>         0.0679
     47 H19        -1.7556   -0.1678   -1.9863 H         1 <0>         0.1359
     48 H20        -0.2696    0.6642   -2.5018 H         1 <0>         0.1414
     49 H21        -1.1719   -0.7587   -4.3220 H         1 <0>         0.1225
     50 H22         0.4163   -1.3505   -3.7758 H         1 <0>         0.0957
     51 H23        -2.3065   -2.4426   -2.9275 H         1 <0>         0.1064
     52 H24        -1.0015   -4.1091   -1.6674 H         1 <0>         0.1187
     53 H25         0.5177   -3.3449   -2.1956 H         1 <0>         0.0913
     54 H26        -0.1033   -2.6062    0.0895 H         1 <0>         0.1342
     55 H27        -1.6620   -2.0091   -0.5273 H         1 <0>         0.1319
     56 H28        -0.3902   -3.3324   -4.9461 H         1 <0>         0.4015
     57 H29        -1.1172   -5.1858   -6.1650 H         1 <0>         0.3975
     58 H30        -3.7582   -6.1406   -5.3645 H         1 <0>         0.0903
     59 H31        -1.2985   -7.9426   -5.2240 H         1 <0>         0.0630
     60 H32        -2.2469   -7.3703   -3.8307 H         1 <0>         0.0650
     61 H33        -2.9269   -9.6621   -4.4892 H         1 <0>         0.0670
     62 H34        -4.2580   -8.5058   -4.7332 H         1 <0>         0.0654
     63 H35        -2.3355   -9.4880   -6.8909 H         1 <0>         0.0637
     64 H36        -4.0226  -10.0167   -6.6852 H         1 <0>         0.0675
     65 H37        -3.8468   -8.2584   -8.4247 H         1 <0>         0.0708
     66 H38        -4.7952   -7.6861   -7.0314 H         1 <0>         0.0666
     67 H39        -3.1667   -5.9665   -7.7662 H         1 <0>         0.0691
     68 H40        -1.8357   -7.1228   -7.5223 H         1 <0>         0.0688
     69 H41         0.9735   -1.0870   -1.4280 H         1 <0>         0.4301
@<TRIPOS>BOND
     1    1    2 1
     2    1   30 1
     3    1   31 1
     4    1   32 1
     5    2    3 1
     6    2    4 1
     7    2   14 1
     8    4    5 2
     9    4    6 am
    10    6    7 1
    11    6   33 1
    12    7    8 1
    13    7   34 1
    14    7   35 1
    15    8   13 1
    16    8    9 1
    17    8   36 1
    18    9   10 1
    19    9   37 1
    20    9   38 1
    21   10   11 1
    22   10   39 1
    23   10   40 1
    24   11   12 1
    25   11   41 1
    26   11   42 1
    27   12   13 1
    28   12   43 1
    29   12   44 1
    30   13   45 1
    31   13   46 1
    32   14   19 1
    33   14   15 1
    34   14   69 1
    35   15   16 1
    36   15   47 1
    37   15   48 1
    38   16   17 1
    39   16   49 1
    40   16   50 1
    41   17   18 1
    42   17   20 1
    43   17   51 1
    44   18   19 1
    45   18   52 1
    46   18   53 1
    47   19   54 1
    48   19   55 1
    49   20   21 am
    50   20   56 1
    51   21   22 2
    52   21   23 am
    53   23   24 1
    54   23   57 1
    55   24   29 1
    56   24   25 1
    57   24   58 1
    58   25   26 1
    59   25   59 1
    60   25   60 1
    61   26   27 1
    62   26   61 1
    63   26   62 1
    64   27   28 1
    65   27   63 1
    66   27   64 1
    67   28   29 1
    68   28   65 1
    69   28   66 1
    70   29   67 1
    71   29   68 1
@<TRIPOS>MOLECULE
ZINC60369940
   50    53     0     0     0
SMALL
USER_CHARGES

@<TRIPOS>ATOM
      1 C1         -0.0031    1.3907   -0.0061 C.ar      1 <0>        -0.1593
      2 C2          1.1848    2.0985   -0.0228 C.ar      1 <0>        -0.0710
      3 C3          2.3909    1.4261   -0.0385 C.ar      1 <0>        -0.1803
      4 C4          2.4101    0.0371   -0.0374 C.ar      1 <0>         0.1960
      5 C5          1.2150   -0.6708   -0.0206 C.ar      1 <0>        -0.1931
      6 C6          0.0124    0.0079   -0.0050 C.ar      1 <0>        -0.0741
      7 N1          3.6282   -0.6461   -0.0537 N.pl3     1 <0>        -0.7402
      8 C7          3.6464   -2.1110   -0.0526 C.3       1 <0>         0.1442
      9 H1          2.8021   -2.5104   -0.6144 H         1 <0>         0.1176
     10 C8          3.6620   -2.6655    1.3963 C.3       1 <0>        -0.1637
     11 C9          4.3434   -4.0407    1.2349 C.3       1 <0>        -0.0048
     12 N2          5.1324   -3.9939   -0.0097 N.4       1 <0>        -0.3741
     13 C10         4.9880   -2.6497   -0.6092 C.3       1 <0>        -0.0175
     14 C11         6.5469   -4.2518    0.2916 C.3       1 <0>        -0.0274
     15 C12         6.7071   -5.6706    0.7737 C.2       1 <0>         0.5018
     16 O1          5.7383   -6.3956    0.8579 O.2       1 <0>        -0.5082
     17 N3          7.9269   -6.1340    1.1112 N.am      1 <0>        -0.6421
     18 C13         8.0633   -7.4199    1.6503 C.ar      1 <0>         0.1173
     19 C14         7.2347   -8.4488    1.2064 C.ar      1 <0>        -0.0825
     20 C15         7.3584   -9.7175    1.7282 C.ar      1 <0>        -0.0875
     21 C16         8.3137   -9.9758    2.7020 C.ar      1 <0>         0.0719
     22 C17         9.1533   -8.9444    3.1548 C.ar      1 <0>         0.0593
     23 C18         9.0224   -7.6622    2.6151 C.ar      1 <0>        -0.0612
     24 N4          9.9732   -9.4844    4.0931 N.2       1 <0>        -0.4247
     25 C19         9.6975  -10.7474    4.2408 C.2       1 <0>         0.2045
     26 N5          8.6829  -11.1050    3.4087 N.pl3     1 <0>        -0.5665
     27 H2          8.2908  -11.9883    3.3267 H         1 <0>         0.4371
     28 C20        10.4005  -11.6786    5.1945 C.3       1 <0>         0.5594
     29 F1         11.1358  -10.9303    6.1201 F         1 <0>        -0.1416
     30 F2          9.4538  -12.4560    5.8702 F         1 <0>        -0.1614
     31 F3         11.2647  -12.5140    4.4786 F         1 <0>        -0.1568
     32 H3         -0.9449    1.9190    0.0107 H         1 <0>         0.1251
     33 H4          1.1692    3.1784   -0.0240 H         1 <0>         0.1277
     34 H5          3.3183    1.9795   -0.0519 H         1 <0>         0.1228
     35 H6          1.2263   -1.7507   -0.0201 H         1 <0>         0.1173
     36 H7         -0.9171   -0.5419    0.0080 H         1 <0>         0.1255
     37 H8          4.4620   -0.1507   -0.0658 H         1 <0>         0.4060
     38 H9          4.2480   -2.0194    2.0499 H         1 <0>         0.1032
     39 H10         2.6467   -2.7806    1.7758 H         1 <0>         0.1172
     40 H11         5.0004   -4.2308    2.0836 H         1 <0>         0.1292
     41 H12         3.5876   -4.8231    1.1656 H         1 <0>         0.1416
     42 H13         4.9467   -2.7205   -1.6961 H         1 <0>         0.1481
     43 H14         5.8122   -2.0065   -0.3010 H         1 <0>         0.1394
     44 H15         7.1430   -4.1045   -0.6090 H         1 <0>         0.1648
     45 H16         6.8843   -3.5643    1.0672 H         1 <0>         0.1639
     46 H17         8.7104   -5.5771    0.9809 H         1 <0>         0.4226
     47 H18         6.4909   -8.2501    0.4490 H         1 <0>         0.1515
     48 H19         6.7128  -10.5104    1.3805 H         1 <0>         0.1412
     49 H20         9.6653   -6.8631    2.9535 H         1 <0>         0.1453
     50 H21         4.7912   -4.6910   -0.6545 H         1 <0>         0.4364
@<TRIPOS>BOND
     1    1    6 ar
     2    1    2 ar
     3    1   32 1
     4    2    3 ar
     5    2   33 1
     6    3    4 ar
     7    3   34 1
     8    4    5 ar
     9    4    7 1
    10    5    6 ar
    11    5   35 1
    12    6   36 1
    13    7    8 1
    14    7   37 1
    15    8    9 1
    16    8   13 1
    17    8   10 1
    18   10   11 1
    19   10   38 1
    20   10   39 1
    21   11   12 1
    22   11   40 1
    23   11   41 1
    24   12   13 1
    25   12   14 1
    26   12   50 1
    27   13   42 1
    28   13   43 1
    29   14   15 1
    30   14   44 1
    31   14   45 1
    32   15   16 2
    33   15   17 am
    34   17   18 1
    35   17   46 1
    36   18   23 ar
    37   18   19 ar
    38   19   20 ar
    39   19   47 1
    40   20   21 ar
    41   20   48 1
    42   21   26 1
    43   21   22 ar
    44   22   23 ar
    45   22   24 1
    46   23   49 1
    47   24   25 2
    48   25   26 1
    49   25   28 1
    50   26   27 1
    51   28   29 1
    52   28   30 1
    53   28   31 1
@<TRIPOS>MOLECULE
ZINC65412563
   58    60     0     0     0
SMALL
USER_CHARGES

@<TRIPOS>ATOM
      1 C1         -4.7980   -8.7578    1.1645 C.3       1 <0>         0.0519
      2 O1         -4.0974   -7.6592    0.5778 O.3       1 <0>        -0.3597
      3 C2         -3.3346   -7.9256   -0.4994 C.2       1 <0>         0.6481
      4 O2         -3.2656   -9.0601   -0.9295 O.2       1 <0>        -0.5518
      5 N1         -2.6475   -6.9342   -1.1006 N.am      1 <0>        -0.6514
      6 C3         -1.7761   -7.2269   -2.1582 C.ar      1 <0>         0.1522
      7 C4         -2.0914   -8.2357   -3.0587 C.ar      1 <0>        -0.0988
      8 C5         -1.2330   -8.5238   -4.1009 C.ar      1 <0>        -0.1191
      9 C6         -0.0545   -7.8046   -4.2488 C.ar      1 <0>         0.1340
     10 C7          0.2608   -6.7958   -3.3483 C.ar      1 <0>        -0.0957
     11 C8         -0.6001   -6.5042   -2.3091 C.ar      1 <0>        -0.1210
     12 N2          0.8169   -8.0973   -5.3064 N.am      1 <0>        -0.6767
     13 C9          2.1493   -7.9997   -5.1285 C.2       1 <0>         0.7070
     14 O3          2.5930   -7.5746   -4.0792 O.2       1 <0>        -0.5517
     15 N3          2.9899   -8.3731   -6.1136 N.am      1 <0>        -0.7616
     16 C10         4.4382   -8.2669   -5.9202 C.3       1 <0>         0.1141
     17 C11         5.1547   -8.6335   -7.2214 C.3       1 <0>         0.0183
     18 C12         4.8967  -10.1061   -7.5476 C.3       1 <0>        -0.1404
     19 C13         5.6158  -10.4683   -8.8502 C.3       1 <0>        -0.1377
     20 C14         5.1347   -9.5341   -9.9642 C.3       1 <0>        -0.1456
     21 C15         5.3839   -8.0828   -9.5485 C.3       1 <0>        -0.0134
     22 N4          4.6489   -7.7911   -8.3118 N.4       1 <0>        -0.3793
     23 C16         4.8284   -6.3764   -7.9593 C.3       1 <0>         0.0353
     24 C17         4.2045   -5.5105   -9.0233 C.ar      1 <0>        -0.1588
     25 C18         4.9553   -5.1015  -10.1096 C.ar      1 <0>        -0.0974
     26 C19         4.3830   -4.3073  -11.0856 C.ar      1 <0>        -0.1126
     27 C20         3.0598   -3.9225  -10.9756 C.ar      1 <0>        -0.0835
     28 C21         2.3088   -4.3323   -9.8898 C.ar      1 <0>        -0.1117
     29 C22         2.8799   -5.1300   -8.9160 C.ar      1 <0>        -0.0933
     30 H1         -5.4732   -9.1932    0.4278 H         1 <0>         0.0648
     31 H2         -4.0823   -9.5120    1.4917 H         1 <0>         0.0646
     32 H3         -5.3728   -8.4063    2.0213 H         1 <0>         0.1097
     33 H4         -2.7563   -6.0180   -0.8011 H         1 <0>         0.4206
     34 H5         -3.0079   -8.7953   -2.9435 H         1 <0>         0.1481
     35 H6         -1.4781   -9.3087   -4.8011 H         1 <0>         0.1312
     36 H7          1.1775   -6.2364   -3.4633 H         1 <0>         0.1449
     37 H8         -0.3570   -5.7165   -1.6114 H         1 <0>         0.1351
     38 H9          0.4612   -8.3703   -6.1666 H         1 <0>         0.4072
     39 H10         2.6359   -8.7121   -6.9506 H         1 <0>         0.3909
     40 H11         4.6934   -7.2448   -5.6404 H         1 <0>         0.1004
     41 H12         4.7501   -8.9488   -5.1291 H         1 <0>         0.1149
     42 H13         6.2261   -8.4706   -7.1040 H         1 <0>         0.1564
     43 H14         5.2745  -10.7300   -6.7376 H         1 <0>         0.1180
     44 H15         3.8256  -10.2706   -7.6653 H         1 <0>         0.0855
     45 H16         6.6915  -10.3529   -8.7170 H         1 <0>         0.0852
     46 H17         5.3891  -11.5006   -9.1168 H         1 <0>         0.0971
     47 H18         5.6827   -9.7492  -10.8816 H         1 <0>         0.1142
     48 H19         4.0685   -9.6867  -10.1321 H         1 <0>         0.0861
     49 H20         6.4503   -7.9312   -9.3811 H         1 <0>         0.1312
     50 H21         5.0427   -7.4150  -10.3395 H         1 <0>         0.1335
     51 H22         4.3486   -6.1770   -7.0011 H         1 <0>         0.1392
     52 H23         5.8926   -6.1523   -7.8864 H         1 <0>         0.1389
     53 H24         5.9890   -5.4021  -10.1955 H         1 <0>         0.1314
     54 H25         4.9697   -3.9871  -11.9339 H         1 <0>         0.1367
     55 H26         2.6129   -3.3014  -11.7378 H         1 <0>         0.1363
     56 H27         1.2752   -4.0314   -9.8037 H         1 <0>         0.1361
     57 H28         2.2921   -5.4533   -8.0696 H         1 <0>         0.1282
     58 H29         3.6676   -7.9786   -8.4529 H         1 <0>         0.4138
@<TRIPOS>BOND
     1    1    2 1
     2    1   30 1
     3    1   31 1
     4    1   32 1
     5    2    3 1
     6    3    4 2
     7    3    5 am
     8    5    6 1
     9    5   33 1
    10    6   11 ar
    11    6    7 ar
    12    7    8 ar
    13    7   34 1
    14    8    9 ar
    15    8   35 1
    16    9   10 ar
    17    9   12 1
    18   10   11 ar
    19   10   36 1
    20   11   37 1
    21   12   13 am
    22   12   38 1
    23   13   14 2
    24   13   15 am
    25   15   16 1
    26   15   39 1
    27   16   17 1
    28   16   40 1
    29   16   41 1
    30   17   22 1
    31   17   18 1
    32   17   42 1
    33   18   19 1
    34   18   43 1
    35   18   44 1
    36   19   20 1
    37   19   45 1
    38   19   46 1
    39   20   21 1
    40   20   47 1
    41   20   48 1
    42   21   22 1
    43   21   49 1
    44   21   50 1
    45   22   23 1
    46   22   58 1
    47   23   24 1
    48   23   51 1
    49   23   52 1
    50   24   29 ar
    51   24   25 ar
    52   25   26 ar
    53   25   53 1
    54   26   27 ar
    55   26   54 1
    56   27   28 ar
    57   27   55 1
    58   28   29 ar
    59   28   56 1
    60   29   57 1
@<TRIPOS>MOLECULE
ZINC00668475
   46    48     0     0     0
SMALL
USER_CHARGES
6-methyl-2-[3-(4-nitrophenyl)prop-2-enoylamino]-4,5,6,7-tetrahydrobenzothiophene-3-carboxamide
@<TRIPOS>ATOM
      1 C1         -5.3058   -0.9015   -4.6629 C.3       1 <0>        -0.1483
      2 C2         -4.3507   -0.6747   -3.4893 C.3       1 <0>        -0.0858
      3 H1         -3.5882   -1.4536   -3.4830 H         1 <0>         0.0761
      4 C3         -3.6854    0.6978   -3.6266 C.3       1 <0>        -0.1147
      5 C4         -2.5549    0.8325   -2.6051 C.3       1 <0>        -0.0612
      6 C5         -3.1001    0.4947   -1.2229 C.2       1 <0>        -0.0665
      7 C6         -4.2531   -0.1942   -1.0791 C.2       1 <0>        -0.2054
      8 S1         -4.4769   -0.3422    0.6708 S.3       1 <0>         0.2328
      9 C7         -3.0567    0.4937    1.2062 C.2       1 <0>         0.0683
     10 C8         -2.4468    0.8736    0.0184 C.2       1 <0>        -0.2247
     11 C9         -1.1873    1.6238    0.0165 C.2       1 <0>         0.5839
     12 O1         -1.2038    2.8408    0.0232 O.2       1 <0>        -0.5325
     13 N1         -0.0111    0.9658    0.0074 N.am      1 <0>        -0.8478
     14 N2         -2.6337    0.7274    2.5040 N.am      1 <0>        -0.6135
     15 C10        -3.3651    0.2772    3.5426 C.2       1 <0>         0.5432
     16 O2         -4.3975   -0.3347    3.3400 O.2       1 <0>        -0.4977
     17 C11        -2.9180    0.5242    4.9141 C.2       1 <0>        -0.1914
     18 C12        -3.6499    0.0737    5.9533 C.2       1 <0>        -0.0160
     19 C13        -3.2002    0.3221    7.3327 C.ar      1 <0>        -0.0255
     20 C14        -2.0116    1.0197    7.5695 C.ar      1 <0>        -0.1030
     21 C15        -1.5995    1.2526    8.8646 C.ar      1 <0>        -0.0534
     22 C16        -2.3535    0.7887    9.9286 C.ar      1 <0>        -0.0355
     23 C17        -3.5283    0.0928    9.7023 C.ar      1 <0>        -0.0539
     24 C18        -3.9565   -0.1434    8.4130 C.ar      1 <0>        -0.0915
     25 N3         -1.9008    1.0376   11.3157 N.pl3     1 <0>         0.0238
     26 O3         -2.5616    0.6304   12.2543 O.2       1 <0>        -0.1530
     27 O4         -0.8674    1.6496   11.5184 O.3       1 <0>        -0.1542
     28 C19        -5.1370   -0.7135   -2.1709 C.3       1 <0>        -0.0317
     29 H2         -6.0644   -0.1188   -4.6704 H         1 <0>         0.0574
     30 H3         -4.7458   -0.8736   -5.5977 H         1 <0>         0.0587
     31 H4         -5.7875   -1.8735   -4.5568 H         1 <0>         0.0580
     32 H5         -3.2792    0.8043   -4.6325 H         1 <0>         0.0714
     33 H6         -4.4261    1.4783   -3.4522 H         1 <0>         0.0678
     34 H7         -2.1785    1.8555   -2.6094 H         1 <0>         0.0759
     35 H8         -1.7493    0.1434   -2.8585 H         1 <0>         0.0770
     36 H9          0.0021   -0.0041    0.0020 H         1 <0>         0.4037
     37 H10         0.8223    1.4622    0.0021 H         1 <0>         0.4037
     38 H11        -1.8109    1.2151    2.6655 H         1 <0>         0.4209
     39 H12        -2.0019    1.0672    5.0939 H         1 <0>         0.1405
     40 H13        -4.5660   -0.4693    5.7735 H         1 <0>         0.1513
     41 H14        -1.4201    1.3788    6.7403 H         1 <0>         0.1518
     42 H15        -0.6841    1.7951    9.0493 H         1 <0>         0.1592
     43 H16        -4.1110   -0.2663   10.5377 H         1 <0>         0.1602
     44 H17        -4.8732   -0.6869    8.2380 H         1 <0>         0.1562
     45 H18        -5.4310   -1.7393   -1.9486 H         1 <0>         0.0816
     46 H19        -6.0250   -0.0868   -2.2537 H         1 <0>         0.0840
@<TRIPOS>BOND
     1    1    2 1
     2    1   29 1
     3    1   30 1
     4    1   31 1
     5    2    3 1
     6    2   28 1
     7    2    4 1
     8    4    5 1
     9    4   32 1
    10    4   33 1
    11    5    6 1
    12    5   34 1
    13    5   35 1
    14    6   10 1
    15    6    7 2
    16    7    8 1
    17    7   28 1
    18    8    9 1
    19    9   10 2
    20    9   14 1
    21   10   11 1
    22   11   12 2
    23   11   13 am
    24   13   36 1
    25   13   37 1
    26   14   15 am
    27   14   38 1
    28   15   16 2
    29   15   17 1
    30   17   18 2
    31   17   39 1
    32   18   19 1
    33   18   40 1
    34   19   24 ar
    35   19   20 ar
    36   20   21 ar
    37   20   41 1
    38   21   22 ar
    39   21   42 1
    40   22   23 ar
    41   22   25 1
    42   23   24 ar
    43   23   43 1
    44   24   44 1
    45   25   26 2
    46   25   27 1
    47   28   45 1
    48   28   46 1
@<TRIPOS>MOLECULE
ZINC16448911
   45    48     0     0     0
SMALL
USER_CHARGES
N-(3-chlorophenyl)-methoxy-methyl-oxo-BLAHcarboxamide
@<TRIPOS>ATOM
      1 C1          2.4990    0.2145    1.2939 C.3       1 <0>        -0.1499
      2 C2          2.4695    1.0090   -0.0133 C.3       1 <0>         0.3518
      3 C3          1.2804    1.9801    0.0071 C.3       1 <0>        -0.1648
      4 H1          1.3343    2.6164    0.8905 H         1 <0>         0.1359
      5 C4          1.3820    2.8360   -1.2659 C.3       1 <0>         0.1993
      6 H2          0.5265    3.5054   -1.3547 H         1 <0>         0.1258
      7 C5          1.4669    1.9066   -2.4561 C.ar      1 <0>        -0.1694
      8 C6          1.0816    2.3752   -3.7007 C.ar      1 <0>        -0.1009
      9 C7          1.1660    1.5559   -4.8098 C.ar      1 <0>        -0.1119
     10 C8          1.6367    0.2623   -4.6787 C.ar      1 <0>        -0.1685
     11 C9          2.0195   -0.2123   -3.4366 C.ar      1 <0>         0.1058
     12 C10         1.9316    0.6135   -2.3140 C.ar      1 <0>         0.1286
     13 O1          2.3079    0.1120   -1.1086 O.3       1 <0>        -0.2823
     14 O2          2.4817   -1.4849   -3.3089 O.3       1 <0>        -0.3020
     15 C11         2.5454   -2.2745   -4.4983 C.3       1 <0>         0.0255
     16 N1          2.6496    3.5819   -1.1996 N.am      1 <0>        -0.7262
     17 C12         3.7404    2.9979   -0.6759 C.2       1 <0>         0.7138
     18 O3          4.7931    3.6062   -0.6875 O.2       1 <0>        -0.5790
     19 N2          3.7101    1.7674   -0.1479 N.am      1 <0>        -0.7291
     20 C13        -0.0143    1.2088    0.0069 C.2       1 <0>         0.5319
     21 O4          0.0022   -0.0038   -0.0081 O.2       1 <0>        -0.4790
     22 N3         -1.1906    1.8666    0.0178 N.am      1 <0>        -0.6681
     23 C14        -2.3910    1.1552   -0.0859 C.ar      1 <0>         0.1572
     24 C15        -2.5094   -0.0989    0.4993 C.ar      1 <0>        -0.1147
     25 C16        -3.6952   -0.7991    0.3954 C.ar      1 <0>        -0.0870
     26 C17        -4.7649   -0.2531   -0.2900 C.ar      1 <0>        -0.1222
     27 C18        -4.6508    0.9963   -0.8740 C.ar      1 <0>        -0.0164
     28 C19        -3.4678    1.7039   -0.7692 C.ar      1 <0>        -0.1358
     29 Cl1        -5.9965    1.6785   -1.7327 Cl        1 <0>        -0.0631
     30 H3          1.5713   -0.3481    1.3981 H         1 <0>         0.1005
     31 H4          3.3428   -0.4754    1.2807 H         1 <0>         0.0821
     32 H5          2.6040    0.9009    2.1340 H         1 <0>         0.0846
     33 H6          0.7134    3.3851   -3.8049 H         1 <0>         0.1291
     34 H7          0.8647    1.9256   -5.7788 H         1 <0>         0.1316
     35 H8          1.7060   -0.3776   -5.5460 H         1 <0>         0.1375
     36 H9          1.5475   -2.3669   -4.9269 H         1 <0>         0.0557
     37 H10         3.2071   -1.7935   -5.2186 H         1 <0>         0.0551
     38 H11         2.9302   -3.2652   -4.2565 H         1 <0>         0.1029
     39 H12         2.6970    4.4918   -1.5325 H         1 <0>         0.4235
     40 H13         4.5393    1.3712    0.1626 H         1 <0>         0.4229
     41 H14        -1.2050    2.8332    0.0976 H         1 <0>         0.4128
     42 H15        -1.6749   -0.5260    1.0355 H         1 <0>         0.1459
     43 H16        -3.7873   -1.7742    0.8504 H         1 <0>         0.1379
     44 H17        -5.6912   -0.8026   -0.3695 H         1 <0>         0.1360
     45 H18        -3.3801    2.6807   -1.2215 H         1 <0>         0.1368
@<TRIPOS>BOND
     1    1    2 1
     2    1   30 1
     3    1   31 1
     4    1   32 1
     5    2   13 1
     6    2   19 1
     7    2    3 1
     8    3    4 1
     9    3    5 1
    10    3   20 1
    11    5    6 1
    12    5    7 1
    13    5   16 1
    14    7   12 ar
    15    7    8 ar
    16    8    9 ar
    17    8   33 1
    18    9   10 ar
    19    9   34 1
    20   10   11 ar
    21   10   35 1
    22   11   12 ar
    23   11   14 1
    24   12   13 1
    25   14   15 1
    26   15   36 1
    27   15   37 1
    28   15   38 1
    29   16   17 am
    30   16   39 1
    31   17   18 2
    32   17   19 am
    33   19   40 1
    34   20   21 2
    35   20   22 am
    36   22   23 1
    37   22   41 1
    38   23   28 ar
    39   23   24 ar
    40   24   25 ar
    41   24   42 1
    42   25   26 ar
    43   25   43 1
    44   26   27 ar
    45   26   44 1
    46   27   28 ar
    47   27   29 1
    48   28   45 1
@<TRIPOS>MOLECULE
ZINC43847036
   54    57     0     0     0
SMALL
USER_CHARGES

@<TRIPOS>ATOM
      1 C1         -0.0538    1.5047   -0.0485 C.3       1 <0>        -0.1590
      2 C2         -0.0354   -0.0252   -0.0486 C.3       1 <0>        -0.0936
      3 C3          0.7276   -0.5261    1.1794 C.3       1 <0>        -0.1369
      4 C4         -1.4711   -0.5525   -0.0070 C.3       1 <0>         0.2506
      5 H1         -1.9634   -0.1951    0.8974 H         1 <0>         0.1248
      6 C5         -2.2226   -0.0591   -1.2165 C.2       1 <0>         0.2782
      7 N1         -2.8801   -0.8541   -2.1032 N.pl3     1 <0>        -0.5976
      8 H2         -2.9469   -1.8212   -2.0687 H         1 <0>         0.4185
      9 C6         -3.4353   -0.0292   -3.0610 C.ar      1 <0>         0.0498
     10 C7         -4.2037   -0.2468   -4.1966 C.ar      1 <0>        -0.1130
     11 C8         -4.6094    0.8254   -4.9622 C.ar      1 <0>        -0.0971
     12 C9         -4.2546    2.1187   -4.6054 C.ar      1 <0>        -0.1261
     13 C10        -3.4991    2.3518   -3.4915 C.ar      1 <0>        -0.0611
     14 C11        -3.0767    1.2805   -2.6999 C.ar      1 <0>         0.0462
     15 N2         -2.3418    1.1897   -1.5617 N.2       1 <0>        -0.4669
     16 N3         -1.4534   -2.0174   -0.0071 N.am      1 <0>        -0.7453
     17 C12        -1.3102   -2.6896    1.1522 C.2       1 <0>         0.7126
     18 O1         -1.1955   -2.0803    2.1981 O.2       1 <0>        -0.5530
     19 N4         -1.2939   -4.0373    1.1522 N.am      1 <0>        -0.6827
     20 C13        -1.0522   -4.7342    2.3414 C.ar      1 <0>         0.1890
     21 C14        -1.5314   -4.2384    3.5477 C.ar      1 <0>        -0.1406
     22 C15        -1.2931   -4.9257    4.7220 C.ar      1 <0>        -0.0731
     23 C16        -0.5776   -6.1076    4.7013 C.ar      1 <0>        -0.1707
     24 C17        -0.0959   -6.6085    3.4987 C.ar      1 <0>         0.1816
     25 C18        -0.3388   -5.9236    2.3165 C.ar      1 <0>        -0.1846
     26 N5          0.6290   -7.8052    3.4786 N.am      1 <0>        -0.5592
     27 C19         0.8307   -8.6709    4.6464 C.3       1 <0>         0.0942
     28 C20         1.2834  -10.0334    4.0761 C.3       1 <0>        -0.1319
     29 C21         1.9115   -9.6171    2.7259 C.3       1 <0>        -0.1542
     30 C22         1.2252   -8.3125    2.3858 C.2       1 <0>         0.5157
     31 O2          1.2164   -7.7979    1.2876 O.2       1 <0>        -0.5112
     32 H3          0.9690    1.8804   -0.0781 H         1 <0>         0.0533
     33 H4         -0.5974    1.8616   -0.9233 H         1 <0>         0.0926
     34 H5         -0.5461    1.8621    0.8559 H         1 <0>         0.0565
     35 H6          0.4569   -0.3826   -0.9530 H         1 <0>         0.0697
     36 H7          0.2353   -0.1687    2.0838 H         1 <0>         0.0679
     37 H8          0.7407   -1.6160    1.1793 H         1 <0>         0.0509
     38 H9          1.7504   -0.1504    1.1498 H         1 <0>         0.0520
     39 H10        -4.4819   -1.2514   -4.4791 H         1 <0>         0.1235
     40 H11        -5.2072    0.6577   -5.8459 H         1 <0>         0.1319
     41 H12        -4.5788    2.9493   -5.2148 H         1 <0>         0.1316
     42 H13        -3.2283    3.3623   -3.2232 H         1 <0>         0.1317
     43 H14        -1.5449   -2.5035   -0.8415 H         1 <0>         0.3928
     44 H15        -1.4498   -4.5242    0.3278 H         1 <0>         0.4073
     45 H16        -2.0903   -3.3145    3.5672 H         1 <0>         0.1427
     46 H17        -1.6666   -4.5382    5.6584 H         1 <0>         0.1316
     47 H18        -0.3924   -6.6423    5.6212 H         1 <0>         0.1264
     48 H19         0.0308   -6.3133    1.3795 H         1 <0>         0.1569
     49 H20         1.6041   -8.2571    5.2935 H         1 <0>         0.0835
     50 H21        -0.1027   -8.7841    5.1978 H         1 <0>         0.0893
     51 H22         2.0252  -10.5003    4.7240 H         1 <0>         0.0983
     52 H23         0.4306  -10.6946    3.9223 H         1 <0>         0.0870
     53 H24         2.9862   -9.4703    2.8342 H         1 <0>         0.1111
     54 H25         1.7029  -10.3653    1.9613 H         1 <0>         0.1083
@<TRIPOS>BOND
     1    1    2 1
     2    1   32 1
     3    1   33 1
     4    1   34 1
     5    2    3 1
     6    2    4 1
     7    2   35 1
     8    3   36 1
     9    3   37 1
    10    3   38 1
    11    4    5 1
    12    4    6 1
    13    4   16 1
    14    6   15 2
    15    6    7 1
    16    7    8 1
    17    7    9 1
    18    9   14 ar
    19    9   10 ar
    20   10   11 ar
    21   10   39 1
    22   11   12 ar
    23   11   40 1
    24   12   13 ar
    25   12   41 1
    26   13   14 ar
    27   13   42 1
    28   14   15 1
    29   16   17 am
    30   16   43 1
    31   17   18 2
    32   17   19 am
    33   19   20 1
    34   19   44 1
    35   20   25 ar
    36   20   21 ar
    37   21   22 ar
    38   21   45 1
    39   22   23 ar
    40   22   46 1
    41   23   24 ar
    42   23   47 1
    43   24   25 ar
    44   24   26 1
    45   25   48 1
    46   26   30 am
    47   26   27 1
    48   27   28 1
    49   27   49 1
    50   27   50 1
    51   28   29 1
    52   28   51 1
    53   28   52 1
    54   29   30 1
    55   29   53 1
    56   29   54 1
    57   30   31 2
@<TRIPOS>MOLECULE
ZINC55854968
   52    54     0     0     0
SMALL
USER_CHARGES

@<TRIPOS>ATOM
      1 C1         -0.0696    1.5016    0.0148 C.3       1 <0>        -0.1138
      2 C2         -0.0225   -0.0046    0.0042 C.ar      1 <0>        -0.0894
      3 C3         -0.0993   -0.6987   -1.2034 C.ar      1 <0>        -0.0959
      4 C4         -0.0551   -2.0938   -1.2052 C.ar      1 <0>        -0.1401
      5 C5          0.0638   -2.7821   -0.0147 C.ar      1 <0>        -0.0835
      6 C6          0.1395   -2.0947    1.1819 C.ar      1 <0>        -0.1713
      7 C7          0.1030   -0.7050    1.1940 C.ar      1 <0>         0.2091
      8 N1          0.1866   -0.0145    2.4057 N.pl3     1 <0>        -0.7360
      9 C8          0.3193   -0.7547    3.6630 C.3       1 <0>         0.1120
     10 C9          0.3886    0.2168    4.8129 C.2       1 <0>         0.5220
     11 O1          0.3328    1.4101    4.6029 O.2       1 <0>        -0.5145
     12 N2          0.5128   -0.2403    6.0747 N.am      1 <0>        -0.5654
     13 C10         0.5843   -1.6166    6.3314 C.ar      1 <0>         0.1018
     14 C11         1.7202   -2.3383    6.0035 C.ar      1 <0>        -0.0970
     15 C12         1.7813   -3.6907    6.2853 C.ar      1 <0>        -0.1127
     16 C13         0.7138   -4.3247    6.8946 C.ar      1 <0>        -0.0886
     17 C14        -0.4274   -3.6132    7.2169 C.ar      1 <0>        -0.1217
     18 C15        -0.5004   -2.2607    6.9279 C.ar      1 <0>         0.1435
     19 N3         -1.6653   -1.5319    7.1937 N.am      1 <0>        -0.6759
     20 C16        -1.5990   -0.3423    7.8304 C.2       1 <0>         0.5283
     21 O2         -2.6056    0.3174    7.9809 O.2       1 <0>        -0.5177
     22 C17        -0.2837    0.1697    8.3551 C.3       1 <0>        -0.1515
     23 C18         0.5814    0.6917    7.2017 C.3       1 <0>         0.1461
     24 H1          0.2147    1.6687    6.8867 H         1 <0>         0.1124
     25 C19         2.0332    0.8210    7.6669 C.3       1 <0>        -0.1606
     26 C20        -0.2277    0.0410   -2.4772 C.2       1 <0>         0.5557
     27 O3         -0.1533    1.2542   -2.4857 O.2       1 <0>        -0.5271
     28 N4         -0.4271   -0.6300   -3.6290 N.am      1 <0>        -0.7320
     29 C21        -0.5542    0.1029   -4.8911 C.3       1 <0>         0.0870
     30 H2          0.9258    1.8976   -0.1867 H         1 <0>         0.0727
     31 H3         -0.7610    1.8489   -0.7529 H         1 <0>         0.0954
     32 H4         -0.4074    1.8477    0.9916 H         1 <0>         0.0513
     33 H5         -0.1143   -2.6347   -2.1381 H         1 <0>         0.1224
     34 H6          0.0975   -3.8616   -0.0183 H         1 <0>         0.1284
     35 H7          0.2317   -2.6389    2.1102 H         1 <0>         0.1239
     36 H8          0.1569    0.9550    2.4145 H         1 <0>         0.4134
     37 H9         -0.5427   -1.4093    3.7919 H         1 <0>         0.0907
     38 H10         1.2297   -1.3535    3.6378 H         1 <0>         0.0943
     39 H11         2.5560   -1.8460    5.5286 H         1 <0>         0.1344
     40 H12         2.6660   -4.2542    6.0282 H         1 <0>         0.1357
     41 H13         0.7715   -5.3795    7.1192 H         1 <0>         0.1361
     42 H14        -1.2595   -4.1109    7.6927 H         1 <0>         0.1368
     43 H15        -2.5265   -1.8833    6.9184 H         1 <0>         0.4129
     44 H16        -0.4670    0.9775    9.0635 H         1 <0>         0.1197
     45 H17         0.2432   -0.6393    8.8609 H         1 <0>         0.0982
     46 H18         2.6455    1.1960    6.8468 H         1 <0>         0.0677
     47 H19         2.0855    1.5148    8.5060 H         1 <0>         0.0772
     48 H20         2.4030   -0.1556    7.9793 H         1 <0>         0.0641
     49 H21        -0.4864   -1.5982   -3.6222 H         1 <0>         0.4018
     50 H22        -1.4038    0.7832   -4.8322 H         1 <0>         0.0613
     51 H23         0.3564    0.6736   -5.0731 H         1 <0>         0.0615
     52 H24        -0.7098   -0.6030   -5.7070 H         1 <0>         0.0766
@<TRIPOS>BOND
     1    1    2 1
     2    1   30 1
     3    1   31 1
     4    1   32 1
     5    2    7 ar
     6    2    3 ar
     7    3    4 ar
     8    3   26 1
     9    4    5 ar
    10    4   33 1
    11    5    6 ar
    12    5   34 1
    13    6    7 ar
    14    6   35 1
    15    7    8 1
    16    8    9 1
    17    8   36 1
    18    9   10 1
    19    9   37 1
    20    9   38 1
    21   10   11 2
    22   10   12 am
    23   12   23 1
    24   12   13 1
    25   13   18 ar
    26   13   14 ar
    27   14   15 ar
    28   14   39 1
    29   15   16 ar
    30   15   40 1
    31   16   17 ar
    32   16   41 1
    33   17   18 ar
    34   17   42 1
    35   18   19 1
    36   19   20 am
    37   19   43 1
    38   20   21 2
    39   20   22 1
    40   22   23 1
    41   22   44 1
    42   22   45 1
    43   23   24 1
    44   23   25 1
    45   25   46 1
    46   25   47 1
    47   25   48 1
    48   26   27 2
    49   26   28 am
    50   28   29 1
    51   28   49 1
    52   29   50 1
    53   29   51 1
    54   29   52 1
@<TRIPOS>MOLECULE
ZINC66510675
   52    55     0     0     0
SMALL
USER_CHARGES

@<TRIPOS>ATOM
      1 C1         -0.0309    1.3754    0.0425 C.ar      1 <0>         0.0032
      2 C2          1.1353    2.0965    0.0352 C.ar      1 <0>        -0.2144
      3 C3          2.3620    1.4390   -0.0026 C.ar      1 <0>         0.2615
      4 C4          2.4091    0.0477   -0.0331 C.ar      1 <0>        -0.2161
      5 C5          1.2467   -0.6795   -0.0260 C.ar      1 <0>        -0.0066
      6 C6          0.0128   -0.0222    0.0119 C.ar      1 <0>        -0.1951
      7 C7         -1.2386   -0.8005    0.0202 C.2       1 <0>         0.5122
      8 O1         -2.3101   -0.2280    0.0535 O.2       1 <0>        -0.4970
      9 O2         -1.1948   -2.1471   -0.0093 O.3       1 <0>        -0.2932
     10 C8         -2.3710   -2.8220   -0.1071 C.ar      1 <0>         0.0703
     11 C9         -2.9014   -3.4562    1.0073 C.ar      1 <0>        -0.0851
     12 C10        -4.0953   -4.1424    0.9090 C.ar      1 <0>        -0.1353
     13 C11        -4.7659   -4.1971   -0.3058 C.ar      1 <0>         0.1629
     14 C12        -4.2348   -3.5616   -1.4203 C.ar      1 <0>        -0.1082
     15 C13        -3.0433   -2.8715   -1.3197 C.ar      1 <0>        -0.0850
     16 C14        -4.9652   -3.6217   -2.7367 C.3       1 <0>        -0.0781
     17 C15        -5.6713   -4.9715   -2.8685 C.3       1 <0>        -0.1388
     18 C16        -6.4453   -5.2697   -1.6127 C.2       1 <0>         0.5214
     19 O3         -7.5036   -5.8578   -1.6863 O.2       1 <0>        -0.5233
     20 N1         -5.9769   -4.8916   -0.4093 N.am      1 <0>        -0.6633
     21 N2          3.5425    2.1732   -0.0104 N.pl3     1 <0>        -0.6158
     22 C17         4.8446    1.4978    0.0727 C.3       1 <0>         0.1104
     23 C18         5.7163    1.9617   -1.0985 C.3       1 <0>        -0.1355
     24 C19         5.7994    3.4898   -1.0934 C.3       1 <0>        -0.1115
     25 C20         4.3982    4.0792   -1.2710 C.3       1 <0>        -0.1260
     26 H1          3.9693    3.7220   -2.2073 H         1 <0>         0.1045
     27 C21         3.5118    3.6389   -0.1079 C.3       1 <0>         0.1342
     28 C22         4.4850    5.5834   -1.2991 C.2       1 <0>         0.5251
     29 O4          3.8943    6.2405   -0.4683 O.2       1 <0>        -0.5390
     30 N3          5.2191    6.1984   -2.2474 N.am      1 <0>        -0.8530
     31 H2         -0.9820    1.8860    0.0763 H         1 <0>         0.1371
     32 H3          1.1022    3.1757    0.0584 H         1 <0>         0.1348
     33 H4          3.3623   -0.4592   -0.0628 H         1 <0>         0.1333
     34 H5          1.2839   -1.7585   -0.0500 H         1 <0>         0.1378
     35 H6         -2.3797   -3.4134    1.9520 H         1 <0>         0.1390
     36 H7         -4.5074   -4.6367    1.7763 H         1 <0>         0.1392
     37 H8         -2.6326   -2.3738   -2.1857 H         1 <0>         0.1357
     38 H9         -5.7028   -2.8203   -2.7797 H         1 <0>         0.0876
     39 H10        -4.2527   -3.5034   -3.5531 H         1 <0>         0.0951
     40 H11        -6.3552   -4.9411   -3.7167 H         1 <0>         0.1125
     41 H12        -4.9297   -5.7536   -3.0310 H         1 <0>         0.1062
     42 H13        -6.4816   -5.1019    0.3919 H         1 <0>         0.4131
     43 H14         5.3303    1.7551    1.0140 H         1 <0>         0.0704
     44 H15         4.7009    0.4188    0.0163 H         1 <0>         0.0912
     45 H16         6.7172    1.5426   -0.9955 H         1 <0>         0.0832
     46 H17         5.2750    1.6245   -2.0364 H         1 <0>         0.0722
     47 H18         6.2179    3.8276   -0.1453 H         1 <0>         0.0731
     48 H19         6.4391    3.8215   -1.9112 H         1 <0>         0.0728
     49 H20         2.4889    3.9721   -0.2834 H         1 <0>         0.0946
     50 H21         3.8863    4.0746    0.8184 H         1 <0>         0.0787
     51 H22         5.6915    5.6729   -2.9118 H         1 <0>         0.4022
     52 H23         5.2750    7.1667   -2.2654 H         1 <0>         0.4046
@<TRIPOS>BOND
     1    1    6 ar
     2    1    2 ar
     3    1   31 1
     4    2    3 ar
     5    2   32 1
     6    3    4 ar
     7    3   21 1
     8    4    5 ar
     9    4   33 1
    10    5    6 ar
    11    5   34 1
    12    6    7 1
    13    7    8 2
    14    7    9 1
    15    9   10 1
    16   10   15 ar
    17   10   11 ar
    18   11   12 ar
    19   11   35 1
    20   12   13 ar
    21   12   36 1
    22   13   20 1
    23   13   14 ar
    24   14   15 ar
    25   14   16 1
    26   15   37 1
    27   16   17 1
    28   16   38 1
    29   16   39 1
    30   17   18 1
    31   17   40 1
    32   17   41 1
    33   18   19 2
    34   18   20 am
    35   20   42 1
    36   21   27 1
    37   21   22 1
    38   22   23 1
    39   22   43 1
    40   22   44 1
    41   23   24 1
    42   23   45 1
    43   23   46 1
    44   24   25 1
    45   24   47 1
    46   24   48 1
    47   25   26 1
    48   25   27 1
    49   25   28 1
    50   27   49 1
    51   27   50 1
    52   28   29 2
    53   28   30 am
    54   30   51 1
    55   30   52 1
@<TRIPOS>MOLECULE
ZINC05212642
   52    54     0     0     0
SMALL
USER_CHARGES
2-(allyl-oxo-BLAHyl)sulfanyl-N-carbamoyl-3-methyl-butanamide
@<TRIPOS>ATOM
      1 C1          2.7516    8.2543   -0.1682 C.3       1 <0>        -0.1585
      2 C2          3.2550    6.8095   -0.1701 C.3       1 <0>        -0.0764
      3 C3          4.1315    6.5732    1.0615 C.3       1 <0>        -0.1541
      4 C4          2.0610    5.8533   -0.1374 C.3       1 <0>        -0.1138
      5 H1          1.4896    6.0167    0.7763 H         1 <0>         0.1380
      6 C5          1.1802    6.1085   -1.3332 C.2       1 <0>         0.5360
      7 O1          1.2525    5.3866   -2.3045 O.2       1 <0>        -0.4444
      8 N1          0.3120    7.1393   -1.3229 N.am      1 <0>        -0.6820
      9 C6         -0.4758    7.3676   -2.3924 C.2       1 <0>         0.6971
     10 O2         -0.4033    6.6438   -3.3661 O.2       1 <0>        -0.5297
     11 N2         -1.3440    8.3984   -2.3821 N.am      1 <0>        -0.8562
     12 S1          2.6554    4.1442   -0.1797 S.3       1 <0>         0.0938
     13 C7          1.1436    3.2872    0.1109 C.2       1 <0>         0.3724
     14 N3          0.0496    3.9714    0.3788 N.2       1 <0>        -0.5038
     15 C8         -1.1029    3.3511    0.6015 C.2       1 <0>         0.1213
     16 C9         -1.2186    1.9515    0.5595 C.2       1 <0>        -0.2502
     17 C10        -2.5525    1.4119    0.8308 C.2       1 <0>        -0.0442
     18 C11        -3.5332    2.3022    1.0827 C.2       1 <0>        -0.1705
     19 S2         -2.7508    3.8897    0.9825 S.3       1 <0>         0.1359
     20 C12        -4.9717    2.0078    1.3814 C.3       1 <0>        -0.0353
     21 C13        -5.2578    0.5490    0.9978 C.3       1 <0>        -0.1155
     22 C14        -4.1512   -0.3376    1.5766 C.3       1 <0>        -0.1223
     23 C15        -2.8410   -0.0868    0.8291 C.3       1 <0>        -0.0596
     24 C16        -0.0143    1.2345    0.2715 C.2       1 <0>         0.5599
     25 O3         -0.0178    0.0166    0.2178 O.2       1 <0>        -0.5141
     26 N4          1.1212    1.9236    0.0551 N.am      1 <0>        -0.5064
     27 C17         2.3569    1.1964   -0.2456 C.3       1 <0>         0.1168
     28 C18         2.4791    1.0083   -1.7358 C.2       1 <0>        -0.1854
     29 C19         3.5543    1.4184   -2.3618 C.2       1 <0>        -0.1456
     30 H2          2.1667    8.4340    0.7339 H         1 <0>         0.0670
     31 H3          3.6022    8.9355   -0.1915 H         1 <0>         0.0767
     32 H4          2.1271    8.4226   -1.0456 H         1 <0>         0.0606
     33 H5          3.8398    6.6297   -1.0722 H         1 <0>         0.0917
     34 H6          4.4227    5.5237    1.1043 H         1 <0>         0.0667
     35 H7          5.0240    7.1956    0.9971 H         1 <0>         0.0716
     36 H8          3.5722    6.8320    1.9605 H         1 <0>         0.0667
     37 H9          0.2541    7.7169   -0.5458 H         1 <0>         0.4105
     38 H10        -1.4019    8.9760   -1.6050 H         1 <0>         0.3999
     39 H11        -1.9110    8.5627   -3.1518 H         1 <0>         0.4216
     40 H12        -5.1624    2.1512    2.4450 H         1 <0>         0.0855
     41 H13        -5.6108    2.6727    0.8005 H         1 <0>         0.0833
     42 H14        -5.2728    0.4530   -0.0879 H         1 <0>         0.0690
     43 H15        -6.2215    0.2436    1.4051 H         1 <0>         0.0763
     44 H16        -4.4338   -1.3850    1.4708 H         1 <0>         0.0719
     45 H17        -4.0163   -0.1036    2.6326 H         1 <0>         0.0660
     46 H18        -2.9330   -0.4400   -0.1980 H         1 <0>         0.0788
     47 H19        -2.0289   -0.6157    1.3279 H         1 <0>         0.0862
     48 H20         3.2116    1.7655    0.1201 H         1 <0>         0.0993
     49 H21         2.3332    0.2223    0.2428 H         1 <0>         0.1185
     50 H22         1.6803    0.5354   -2.2877 H         1 <0>         0.1169
     51 H23         3.6419    1.2836   -3.4297 H         1 <0>         0.1092
     52 H24         4.3532    1.8913   -1.8099 H         1 <0>         0.1030
@<TRIPOS>BOND
     1    1    2 1
     2    1   30 1
     3    1   31 1
     4    1   32 1
     5    2    3 1
     6    2    4 1
     7    2   33 1
     8    3   34 1
     9    3   35 1
    10    3   36 1
    11    4    5 1
    12    4    6 1
    13    4   12 1
    14    6    7 2
    15    6    8 am
    16    8    9 am
    17    8   37 1
    18    9   10 2
    19    9   11 am
    20   11   38 1
    21   11   39 1
    22   12   13 1
    23   13   26 1
    24   13   14 2
    25   14   15 1
    26   15   19 1
    27   15   16 2
    28   16   17 1
    29   16   24 1
    30   17   23 1
    31   17   18 2
    32   18   19 1
    33   18   20 1
    34   20   21 1
    35   20   40 1
    36   20   41 1
    37   21   22 1
    38   21   42 1
    39   21   43 1
    40   22   23 1
    41   22   44 1
    42   22   45 1
    43   23   46 1
    44   23   47 1
    45   24   25 2
    46   24   26 am
    47   26   27 1
    48   27   28 1
    49   27   48 1
    50   27   49 1
    51   28   29 2
    52   28   50 1
    53   29   51 1
    54   29   52 1
@<TRIPOS>MOLECULE
ZINC14281127
   57    60     0     0     0
SMALL
USER_CHARGES
N-[(1R)-1-(3,4-dimethylphenyl)ethyl]-2-[(4S)-4-(1H-indol-3-ylmethyl)-2,5-dioxo-imidazolidin-1-yl]acetamide
@<TRIPOS>ATOM
      1 C1          0.3575   -6.8316   -9.8253 C.3       1 <0>        -0.1203
      2 C2          0.5705   -5.9750   -8.6038 C.ar      1 <0>        -0.0843
      3 C3          0.8577   -4.6299   -8.7443 C.ar      1 <0>        -0.1118
      4 C4          1.0473   -3.8431   -7.6238 C.ar      1 <0>        -0.1166
      5 C5          0.9602   -4.4034   -6.3629 C.ar      1 <0>        -0.0953
      6 C6          0.6731   -5.7481   -6.2225 C.ar      1 <0>        -0.1031
      7 C7          0.4782   -6.5340   -7.3431 C.ar      1 <0>        -0.0810
      8 C8          0.1647   -8.0001   -7.1901 C.3       1 <0>        -0.1204
      9 C9          1.1722   -3.5467   -5.1414 C.3       1 <0>         0.1869
     10 H1          0.7266   -4.0339   -4.2741 H         1 <0>         0.0969
     11 C10         2.6719   -3.3572   -4.9054 C.3       1 <0>        -0.1578
     12 N1          0.5411   -2.2404   -5.3456 N.am      1 <0>        -0.7205
     13 C11         0.1502   -1.5076   -4.2842 C.2       1 <0>         0.5043
     14 O1          0.3208   -1.9295   -3.1600 O.2       1 <0>        -0.5236
     15 C12        -0.4990   -0.1639   -4.4942 C.3       1 <0>         0.0993
     16 N2         -0.8285    0.4277   -3.1951 N.am      1 <0>        -0.5615
     17 C13         0.0028    1.2222   -2.4923 C.2       1 <0>         0.5314
     18 O2          1.1224    1.5681   -2.8035 O.2       1 <0>        -0.4622
     19 C14        -0.7527    1.5927   -1.2315 C.3       1 <0>         0.1028
     20 H2         -0.8990    2.6713   -1.1751 H         1 <0>         0.1298
     21 N3         -2.0431    0.8987   -1.3846 N.am      1 <0>        -0.7156
     22 C15        -1.9921    0.2465   -2.5601 C.2       1 <0>         0.7074
     23 O3         -2.9017   -0.4312   -2.9967 O.2       1 <0>        -0.5398
     24 C16        -0.0127    1.0858    0.0080 C.3       1 <0>        -0.0409
     25 C17        -0.7181    1.5718    1.2479 C.2       1 <0>        -0.1805
     26 C18        -0.4197    2.6718    1.9570 C.2       1 <0>         0.0675
     27 N4         -1.2768    2.7905    3.0169 N.pl3     1 <0>        -0.5932
     28 H3         -1.2577    3.5060    3.6716 H         1 <0>         0.4179
     29 C19        -2.1705    1.7431    3.0158 C.ar      1 <0>         0.0952
     30 C20        -1.8635    0.9368    1.9043 C.ar      1 <0>        -0.1004
     31 C21        -2.6110   -0.2147    1.6515 C.ar      1 <0>        -0.0776
     32 C22        -3.6453   -0.5477    2.4803 C.ar      1 <0>        -0.1401
     33 C23        -3.9558    0.2474    3.5747 C.ar      1 <0>        -0.0967
     34 C24        -3.2277    1.3854    3.8458 C.ar      1 <0>        -0.1286
     35 H4         -0.6980   -6.8209  -10.0970 H         1 <0>         0.0719
     36 H5          0.9495   -6.4389  -10.6521 H         1 <0>         0.0664
     37 H6          0.6671   -7.8543   -9.6103 H         1 <0>         0.0714
     38 H7          0.9294   -4.1930   -9.7293 H         1 <0>         0.1241
     39 H8          1.2673   -2.7915   -7.7334 H         1 <0>         0.1201
     40 H9          0.6006   -6.1848   -5.2374 H         1 <0>         0.1242
     41 H10        -0.9152   -8.1364   -7.1308 H         1 <0>         0.0724
     42 H11         0.5532   -8.5464   -8.0495 H         1 <0>         0.0718
     43 H12         0.6291   -8.3778   -6.2792 H         1 <0>         0.0670
     44 H13         3.1175   -2.8700   -5.7727 H         1 <0>         0.0602
     45 H14         2.8253   -2.7375   -4.0219 H         1 <0>         0.0653
     46 H15         3.1415   -4.3291   -4.7535 H         1 <0>         0.0690
     47 H16         0.4046   -1.9030   -6.2447 H         1 <0>         0.4016
     48 H17        -1.4107   -0.2882   -5.0785 H         1 <0>         0.1290
     49 H18         0.1883    0.4921   -5.0284 H         1 <0>         0.1270
     50 H19        -2.7848    0.9097   -0.7596 H         1 <0>         0.4419
     51 H20         0.0021   -0.0041    0.0020 H         1 <0>         0.0870
     52 H21         1.0099    1.4631    0.0003 H         1 <0>         0.0978
     53 H22         0.3790    3.3610    1.7254 H         1 <0>         0.1734
     54 H23        -2.3753   -0.8380    0.8016 H         1 <0>         0.1213
     55 H24        -4.2259   -1.4364    2.2819 H         1 <0>         0.1236
     56 H25        -4.7765   -0.0285    4.2202 H         1 <0>         0.1260
     57 H26        -3.4773    1.9977    4.6997 H         1 <0>         0.1202
@<TRIPOS>BOND
     1    1    2 1
     2    1   35 1
     3    1   36 1
     4    1   37 1
     5    2    7 ar
     6    2    3 ar
     7    3    4 ar
     8    3   38 1
     9    4    5 ar
    10    4   39 1
    11    5    6 ar
    12    5    9 1
    13    6    7 ar
    14    6   40 1
    15    7    8 1
    16    8   41 1
    17    8   42 1
    18    8   43 1
    19    9   10 1
    20    9   11 1
    21    9   12 1
    22   11   44 1
    23   11   45 1
    24   11   46 1
    25   12   13 am
    26   12   47 1
    27   13   14 2
    28   13   15 1
    29   15   16 1
    30   15   48 1
    31   15   49 1
    32   16   22 am
    33   16   17 am
    34   17   18 2
    35   17   19 1
    36   19   20 1
    37   19   21 1
    38   19   24 1
    39   21   22 am
    40   21   50 1
    41   22   23 2
    42   24   25 1
    43   24   51 1
    44   24   52 1
    45   25   30 1
    46   25   26 2
    47   26   27 1
    48   26   53 1
    49   27   28 1
    50   27   29 1
    51   29   34 ar
    52   29   30 ar
    53   30   31 ar
    54   31   32 ar
    55   31   54 1
    56   32   33 ar
    57   32   55 1
    58   33   34 ar
    59   33   56 1
    60   34   57 1
@<TRIPOS>MOLECULE
ZINC22738240
   48    51     0     0     0
SMALL
USER_CHARGES
4-(1H-benzimidazol-2-ylsulfanylmethyl)-N'-(3-cyanobenzoyl)benzohydrazide
@<TRIPOS>ATOM
      1 C1         14.3700   14.2656    1.2433 C.ar      1 <0>        -0.1000
      2 C2         14.1340   14.1369   -0.1173 C.ar      1 <0>        -0.1254
      3 C3         13.0206   13.4673   -0.5732 C.ar      1 <0>        -0.0668
      4 C4         12.1214   12.9131    0.3414 C.ar      1 <0>         0.0524
      5 C5         12.3656   13.0460    1.7182 C.ar      1 <0>         0.0469
      6 C6         13.4920   13.7236    2.1593 C.ar      1 <0>        -0.1115
      7 N1         11.3185   12.4041    2.3593 N.pl3     1 <0>        -0.5964
      8 H1         11.2839   12.3710    3.4583 H         1 <0>         0.4554
      9 C7         10.4905   11.9128    1.3898 C.2       1 <0>         0.2719
     10 N2         10.9676   12.2084    0.2056 N.2       1 <0>        -0.4941
     11 S1          9.0069   11.0100    1.6874 S.3       1 <0>         0.0043
     12 C8          8.4763   10.7070   -0.0164 C.3       1 <0>        -0.0664
     13 C9          7.1877    9.9256   -0.0098 C.ar      1 <0>        -0.0536
     14 C10         5.9767   10.5946    0.0045 C.ar      1 <0>        -0.1037
     15 C11         4.7934    9.8854    0.0110 C.ar      1 <0>        -0.0529
     16 C12         4.8198    8.4899    0.0032 C.ar      1 <0>        -0.1188
     17 C13         6.0450    7.8212   -0.0058 C.ar      1 <0>        -0.0839
     18 C14         7.2209    8.5425   -0.0176 C.ar      1 <0>        -0.1029
     19 C15         3.5556    7.7233    0.0107 C.2       1 <0>         0.5641
     20 O1          2.4902    8.3083    0.0236 O.2       1 <0>        -0.5392
     21 N3          3.5845    6.3759    0.0031 N.am      1 <0>        -0.5274
     22 N4          2.3866    5.6495    0.0102 N.am      1 <0>        -0.5262
     23 C16         2.4155    4.3020    0.0026 C.2       1 <0>         0.5643
     24 O2          3.4809    3.7171   -0.0103 O.2       1 <0>        -0.5367
     25 C17         1.1511    3.5354    0.0101 C.ar      1 <0>        -0.1264
     26 C18        -0.0742    4.2062    0.0255 C.ar      1 <0>        -0.0573
     27 C19        -1.2558    3.4922    0.0324 C.ar      1 <0>        -0.1204
     28 C20        -1.2357    2.1115    0.0194 C.ar      1 <0>        -0.0411
     29 C21        -0.0173    1.4278    0.0099 C.ar      1 <0>        -0.0282
     30 C22         1.1792    2.1428    0.0023 C.ar      1 <0>        -0.0087
     31 C23         0.0021   -0.0041    0.0020 C.1       1 <0>         0.2479
     32 N5          0.0175   -1.1399   -0.0042 N.1       1 <0>        -0.4003
     33 H2         15.2471   14.7932    1.5882 H         1 <0>         0.1318
     34 H3         14.8290   14.5649   -0.8247 H         1 <0>         0.1313
     35 H4         12.8431   13.3705   -1.6341 H         1 <0>         0.1294
     36 H5         13.6818   13.8267    3.2175 H         1 <0>         0.1242
     37 H6          8.3197   11.6681   -0.5281 H         1 <0>         0.1135
     38 H7          9.2510   10.1322   -0.5450 H         1 <0>         0.1135
     39 H8          5.9577   11.6744    0.0101 H         1 <0>         0.1379
     40 H9          3.8488   10.4087    0.0218 H         1 <0>         0.1432
     41 H10         6.0722    6.7415   -0.0073 H         1 <0>         0.1307
     42 H11         8.1695    8.0263   -0.0291 H         1 <0>         0.1372
     43 H12         4.5487    5.8465   -0.0087 H         1 <0>         0.4579
     44 H13         1.4224    6.1789    0.0220 H         1 <0>         0.4574
     45 H14        -0.0972    5.2860    0.0315 H         1 <0>         0.1354
     46 H15        -2.2002    4.0160    0.0439 H         1 <0>         0.1459
     47 H16        -2.1637    1.5591    0.0204 H         1 <0>         0.1422
     48 H17         2.1239    1.6194   -0.0092 H         1 <0>         0.1495
@<TRIPOS>BOND
     1    1    6 ar
     2    1    2 ar
     3    1   33 1
     4    2    3 ar
     5    2   34 1
     6    3    4 ar
     7    3   35 1
     8    4   10 1
     9    4    5 ar
    10    5    6 ar
    11    5    7 1
    12    6   36 1
    13    7    8 1
    14    7    9 1
    15    9   10 2
    16    9   11 1
    17   11   12 1
    18   12   13 1
    19   12   37 1
    20   12   38 1
    21   13   18 ar
    22   13   14 ar
    23   14   15 ar
    24   14   39 1
    25   15   16 ar
    26   15   40 1
    27   16   17 ar
    28   16   19 1
    29   17   18 ar
    30   17   41 1
    31   18   42 1
    32   19   20 2
    33   19   21 am
    34   21   22 1
    35   21   43 1
    36   22   23 am
    37   22   44 1
    38   23   24 2
    39   23   25 1
    40   25   30 ar
    41   25   26 ar
    42   26   27 ar
    43   26   45 1
    44   27   28 ar
    45   27   46 1
    46   28   29 ar
    47   28   47 1
    48   29   30 ar
    49   29   31 1
    50   30   48 1
    51   31   32 3
@<TRIPOS>MOLECULE
ZINC39252132
   53    56     0     0     0
SMALL
USER_CHARGES

@<TRIPOS>ATOM
      1 C1         -0.0187    1.5258    0.0104 C.3       1 <0>        -0.1501
      2 C2          0.0021   -0.0041    0.0020 C.3       1 <0>        -0.0995
      3 C3         -1.4333   -0.5336    0.0129 C.3       1 <0>        -0.1512
      4 C4          0.7182   -0.4975   -1.2568 C.3       1 <0>         0.1806
      5 H1          1.7665   -0.1989   -1.2559 H         1 <0>         0.1118
      6 N1          0.5753   -1.9621   -1.4190 N.pl3     1 <0>        -0.6132
      7 N2         -0.0918   -2.3641   -2.5545 N.2       1 <0>        -0.2348
      8 C5         -0.5682   -1.5366   -3.4313 C.2       1 <0>         0.3014
      9 S1         -0.1393    0.0724   -2.7822 S.3       1 <0>        -0.1864
     10 N3         -1.2542   -1.8324   -4.6058 N.am      1 <0>        -0.6109
     11 C6         -1.4921   -3.1156   -4.9423 C.2       1 <0>         0.5236
     12 O1         -1.1084   -4.0126   -4.2218 O.2       1 <0>        -0.4748
     13 C7         -2.2347   -3.4358   -6.2139 C.3       1 <0>        -0.1180
     14 H2         -1.7092   -3.0365   -7.0813 H         1 <0>         0.1280
     15 C8         -3.6866   -2.9072   -6.1549 C.3       1 <0>        -0.1491
     16 C9         -4.4969   -3.9681   -6.8665 C.2       1 <0>         0.5200
     17 O2         -5.6255   -3.8166   -7.2840 O.2       1 <0>        -0.5190
     18 N4         -3.7839   -5.1030   -6.9693 N.am      1 <0>        -0.6186
     19 C10        -2.4582   -4.9578   -6.3553 C.3       1 <0>         0.1177
     20 C11        -4.2672   -6.3275   -7.6122 C.3       1 <0>         0.1314
     21 C12        -3.8992   -6.3033   -9.0971 C.3       1 <0>        -0.0591
     22 C13        -4.3963   -7.5629   -9.7584 C.2       1 <0>        -0.1672
     23 C14        -5.7398   -7.7935  -10.2947 C.ar      1 <0>        -0.0914
     24 C15        -6.8985   -7.0187  -10.3738 C.ar      1 <0>        -0.0575
     25 C16        -8.0307   -7.5438  -10.9567 C.ar      1 <0>        -0.0592
     26 C17        -8.0239   -8.8370  -11.4637 C.ar      1 <0>        -0.0892
     27 C18        -6.8882   -9.6134  -11.3928 C.ar      1 <0>        -0.1174
     28 C19        -5.7339   -9.1030  -10.8090 C.ar      1 <0>         0.0992
     29 N5         -4.4742   -9.6176  -10.5942 N.pl3     1 <0>        -0.5924
     30 C20        -3.6901   -8.6842   -9.9729 C.2       1 <0>         0.0634
     31 Cl1        -9.4741   -6.5845  -11.0575 Cl        1 <0>        -0.0707
     32 H3          1.0039    1.9031    0.0027 H         1 <0>         0.0587
     33 H4         -0.5459    1.8868   -0.8726 H         1 <0>         0.0656
     34 H5         -0.5289    1.8773    0.9072 H         1 <0>         0.0663
     35 H6          0.5293   -0.3651    0.8851 H         1 <0>         0.0900
     36 H7         -1.9605   -0.1726   -0.8702 H         1 <0>         0.0645
     37 H8         -1.4185   -1.6235    0.0069 H         1 <0>         0.0572
     38 H9         -1.9435   -0.1821    0.9097 H         1 <0>         0.0603
     39 H10         0.9267   -2.5934   -0.7717 H         1 <0>         0.4393
     40 H11        -1.5611   -1.1150   -5.1820 H         1 <0>         0.4290
     41 H12        -4.0144   -2.8070   -5.1201 H         1 <0>         0.1108
     42 H13        -3.7667   -1.9529   -6.6754 H         1 <0>         0.1155
     43 H14        -1.6939   -5.3931   -6.9990 H         1 <0>         0.0898
     44 H15        -2.4426   -5.4340   -5.3749 H         1 <0>         0.0935
     45 H16        -3.8058   -7.1935   -7.1376 H         1 <0>         0.0819
     46 H17        -5.3503   -6.3898   -7.5073 H         1 <0>         0.0861
     47 H18        -4.3606   -5.4373   -9.5717 H         1 <0>         0.0761
     48 H19        -2.8160   -6.2410   -9.2020 H         1 <0>         0.0742
     49 H20        -6.9072   -6.0131   -9.9799 H         1 <0>         0.1352
     50 H21        -8.9181   -9.2379  -11.9177 H         1 <0>         0.1366
     51 H22        -6.8942  -10.6175  -11.7906 H         1 <0>         0.1298
     52 H23        -2.6568   -8.8289   -9.6941 H         1 <0>         0.1733
     53 H24        -4.1851  -10.5078  -10.8488 H         1 <0>         0.4191
@<TRIPOS>BOND
     1    1    2 1
     2    1   32 1
     3    1   33 1
     4    1   34 1
     5    2    3 1
     6    2    4 1
     7    2   35 1
     8    3   36 1
     9    3   37 1
    10    3   38 1
    11    4    5 1
    12    4    9 1
    13    4    6 1
    14    6    7 1
    15    6   39 1
    16    7    8 2
    17    8    9 1
    18    8   10 1
    19   10   11 am
    20   10   40 1
    21   11   12 2
    22   11   13 1
    23   13   14 1
    24   13   19 1
    25   13   15 1
    26   15   16 1
    27   15   41 1
    28   15   42 1
    29   16   17 2
    30   16   18 am
    31   18   19 1
    32   18   20 1
    33   19   43 1
    34   19   44 1
    35   20   21 1
    36   20   45 1
    37   20   46 1
    38   21   47 1
    39   21   48 1
    40   21   22 1
    41   22   23 1
    42   22   30 2
    43   23   24 ar
    44   23   28 ar
    45   24   25 ar
    46   24   49 1
    47   25   26 ar
    48   25   31 1
    49   26   27 ar
    50   26   50 1
    51   27   28 ar
    52   27   51 1
    53   28   29 1
    54   29   53 1
    55   29   30 1
    56   30   52 1
@<TRIPOS>MOLECULE
ZINC46775880
   63    67     0     0     0
SMALL
USER_CHARGES

@<TRIPOS>ATOM
      1 C1          0.1221    1.1544    0.7631 C.ar      1 <0>        -0.0845
      2 C2          1.3092    1.8625    0.7622 C.ar      1 <0>        -0.1247
      3 C3          2.3810    1.4190    0.0094 C.ar      1 <0>         0.0947
      4 C4          2.2663    0.2585   -0.7490 C.ar      1 <0>         0.1291
      5 C5          1.0759   -0.4529   -0.7490 C.ar      1 <0>        -0.1088
      6 C6          0.0024   -0.0045    0.0078 C.ar      1 <0>         0.1453
      7 N1         -1.2007   -0.7209    0.0101 N.am      1 <0>        -0.6726
      8 C7         -2.3738   -0.0677    0.1269 C.2       1 <0>         0.5193
      9 O1         -2.3945    1.1450    0.1338 O.2       1 <0>        -0.5064
     10 C8         -3.6597   -0.8440    0.2490 C.3       1 <0>        -0.1517
     11 C9         -4.8339    0.1296    0.3673 C.3       1 <0>         0.1532
     12 N2         -6.0840   -0.6250    0.4859 N.am      1 <0>        -0.7512
     13 C10        -7.2570    0.0282    0.6028 C.2       1 <0>         0.7061
     14 O2         -7.2778    1.2439    0.6097 O.2       1 <0>        -0.5773
     15 N3         -8.4070   -0.6661    0.7120 N.am      1 <0>        -0.7412
     16 C11        -9.6821    0.0440    0.8390 C.3       1 <0>         0.2026
     17 C12        -9.6568    0.9171    2.0952 C.3       1 <0>        -0.1224
     18 C13       -10.9885    1.6587    2.2278 C.3       1 <0>        -0.0828
     19 C14       -12.1287    0.6441    2.3348 C.3       1 <0>        -0.1114
     20 C15       -12.1541   -0.2289    1.0786 C.3       1 <0>        -0.0801
     21 C16       -10.8224   -0.9705    0.9459 C.3       1 <0>        -0.1140
     22 C17       -12.3709    0.6541   -0.1519 C.3       1 <0>        -0.1115
     23 C18       -11.2306    1.6686   -0.2589 C.3       1 <0>        -0.0829
     24 C19       -11.2052    2.5417    0.9973 C.3       1 <0>        -0.1095
     25 C20        -9.8989    0.9271   -0.3915 C.3       1 <0>        -0.1227
     26 N4          3.3515   -0.1906   -1.5118 N.am      1 <0>        -0.5817
     27 C21         4.3813   -1.1149   -1.0229 C.3       1 <0>         0.1036
     28 C22         5.0865   -1.6527   -2.2877 C.3       1 <0>        -0.1305
     29 C23         4.8335   -0.5109   -3.2993 C.3       1 <0>        -0.1520
     30 C24         3.5805    0.1649   -2.7877 C.2       1 <0>         0.5205
     31 O3          2.8851    0.9198   -3.4340 O.2       1 <0>        -0.5143
     32 F1          3.5399    2.1134    0.0102 F         1 <0>        -0.1306
     33 H1         -0.7119    1.5006    1.3555 H         1 <0>         0.1498
     34 H2          1.3996    2.7639    1.3502 H         1 <0>         0.1478
     35 H3          0.9843   -1.3542   -1.3370 H         1 <0>         0.1389
     36 H4         -1.1899   -1.6874   -0.0724 H         1 <0>         0.4143
     37 H5         -3.7927   -1.4680   -0.6347 H         1 <0>         0.1057
     38 H6         -3.6202   -1.4751    1.1368 H         1 <0>         0.1071
     39 H7         -4.7010    0.7537    1.2510 H         1 <0>         0.0772
     40 H8         -4.8735    0.7608   -0.5206 H         1 <0>         0.0772
     41 H9         -6.0674   -1.5949    0.4804 H         1 <0>         0.3943
     42 H10        -8.3905   -1.6359    0.7065 H         1 <0>         0.3934
     43 H11        -9.5024    0.2880    2.9718 H         1 <0>         0.0574
     44 H12        -8.8444    1.6398    2.0190 H         1 <0>         0.0876
     45 H13       -10.9704    2.2807    3.1228 H         1 <0>         0.0718
     46 H14       -11.9743    0.0151    3.2114 H         1 <0>         0.0619
     47 H15       -13.0774    1.1725    2.4293 H         1 <0>         0.0647
     48 H16       -12.9664   -0.9517    1.1548 H         1 <0>         0.0747
     49 H17       -10.8405   -1.5925    0.0510 H         1 <0>         0.0676
     50 H18       -10.6680   -1.5996    1.8226 H         1 <0>         0.0676
     51 H19       -12.3889    0.0321   -1.0469 H         1 <0>         0.0620
     52 H20       -13.3196    1.1824   -0.0574 H         1 <0>         0.0647
     53 H21       -11.3850    2.2977   -1.1355 H         1 <0>         0.0718
     54 H22       -12.1539    3.0700    1.0918 H         1 <0>         0.0622
     55 H23       -10.3929    3.2645    0.9211 H         1 <0>         0.0654
     56 H24        -9.0866    1.6498   -0.4677 H         1 <0>         0.0877
     57 H25        -9.9170    0.3051   -1.2865 H         1 <0>         0.0575
     58 H26         5.0937   -0.5854   -0.3901 H         1 <0>         0.0779
     59 H27         3.9213   -1.9342   -0.4703 H         1 <0>         0.0833
     60 H28         6.1536   -1.7884   -2.1115 H         1 <0>         0.0965
     61 H29         4.6272   -2.5817   -2.6252 H         1 <0>         0.0856
     62 H30         5.6718    0.1858   -3.3057 H         1 <0>         0.1100
     63 H31         4.6650   -0.9157   -4.2972 H         1 <0>         0.1070
@<TRIPOS>BOND
     1    1    6 ar
     2    1    2 ar
     3    1   33 1
     4    2    3 ar
     5    2   34 1
     6    3    4 ar
     7    3   32 1
     8    4    5 ar
     9    4   26 1
    10    5    6 ar
    11    5   35 1
    12    6    7 1
    13    7    8 am
    14    7   36 1
    15    8    9 2
    16    8   10 1
    17   10   11 1
    18   10   37 1
    19   10   38 1
    20   11   12 1
    21   11   39 1
    22   11   40 1
    23   12   13 am
    24   12   41 1
    25   13   14 2
    26   13   15 am
    27   15   16 1
    28   15   42 1
    29   16   21 1
    30   16   25 1
    31   16   17 1
    32   17   18 1
    33   17   43 1
    34   17   44 1
    35   18   24 1
    36   18   19 1
    37   18   45 1
    38   19   20 1
    39   19   46 1
    40   19   47 1
    41   20   21 1
    42   20   22 1
    43   20   48 1
    44   21   49 1
    45   21   50 1
    46   22   23 1
    47   22   51 1
    48   22   52 1
    49   23   24 1
    50   23   25 1
    51   23   53 1
    52   24   54 1
    53   24   55 1
    54   25   56 1
    55   25   57 1
    56   26   30 am
    57   26   27 1
    58   27   28 1
    59   27   58 1
    60   27   59 1
    61   28   29 1
    62   28   60 1
    63   28   61 1
    64   29   30 1
    65   29   62 1
    66   29   63 1
    67   30   31 2
@<TRIPOS>MOLECULE
ZINC65365548
   41    44     0     0     0
SMALL
USER_CHARGES

@<TRIPOS>ATOM
      1 C1         -0.0184    1.5028    0.0103 C.3       1 <0>        -0.0889
      2 C2          0.0021   -0.0041    0.0020 C.2       1 <0>         0.0796
      3 C3         -1.0762   -0.8074    0.0026 C.2       1 <0>        -0.2858
      4 C4         -0.6253   -2.1467   -0.0073 C.2       1 <0>         0.3357
      5 N1          0.6832   -2.1300   -0.0135 N.2       1 <0>        -0.3521
      6 O1          1.0998   -0.7764   -0.0131 O.3       1 <0>        -0.0690
      7 N2         -1.4313   -3.2838   -0.0095 N.am      1 <0>        -0.6296
      8 C5         -2.7733   -3.1586   -0.0019 C.2       1 <0>         0.6370
      9 O2         -3.2815   -2.0519    0.0069 O.2       1 <0>        -0.5182
     10 C6         -3.5924   -4.3141   -0.0042 C.2       1 <0>        -0.3489
     11 C7         -4.9689   -4.3856   -0.0031 C.2       1 <0>         0.3122
     12 C8         -5.5920   -5.6993   -0.0060 C.ar      1 <0>        -0.1563
     13 C9         -6.9735   -6.0222   -0.0051 C.ar      1 <0>        -0.0684
     14 C10        -7.3511   -7.3308   -0.0078 C.ar      1 <0>        -0.1281
     15 C11        -6.3890   -8.3453   -0.0113 C.ar      1 <0>         0.2464
     16 N3         -5.0973   -8.0409   -0.0121 N.ar      1 <0>        -0.4230
     17 C12        -4.6920   -6.7905   -0.0096 C.ar      1 <0>         0.1430
     18 S1         -3.0903   -6.0238   -0.0170 S.3       1 <0>         0.1555
     19 C13        -6.8133   -9.7658   -0.0137 C.ar      1 <0>        -0.1213
     20 C14        -5.8673  -10.7902    0.0936 C.ar      1 <0>        -0.0230
     21 C15        -6.3146  -12.0999    0.0865 C.ar      1 <0>        -0.1753
     22 C16        -7.6703  -12.3514   -0.0254 C.ar      1 <0>         0.1231
     23 N4         -8.5393  -11.3641   -0.1250 N.ar      1 <0>        -0.4817
     24 C17        -8.1619  -10.1021   -0.1170 C.ar      1 <0>         0.1350
     25 C18        -8.0115   -4.9296   -0.0008 C.3       1 <0>         0.4990
     26 F1         -9.2889   -5.4999   -0.0008 F         1 <0>        -0.1563
     27 F2         -7.8531   -4.1404    1.1434 F         1 <0>        -0.1580
     28 F3         -7.8559   -4.1342   -1.1411 F         1 <0>        -0.1580
     29 N5         -5.7410   -3.2322    0.0011 N.pl3     1 <0>        -0.8197
     30 H1          1.0042    1.8801    0.0026 H         1 <0>         0.0862
     31 H2         -0.5455    1.8639   -0.8728 H         1 <0>         0.0973
     32 H3         -0.5286    1.8543    0.9071 H         1 <0>         0.0973
     33 H4         -2.1070   -0.4853    0.0099 H         1 <0>         0.1832
     34 H5         -1.0265   -4.1652   -0.0166 H         1 <0>         0.4209
     35 H6         -8.4004   -7.5865   -0.0068 H         1 <0>         0.1674
     36 H7         -4.8145  -10.5651    0.1794 H         1 <0>         0.1506
     37 H8         -5.6128  -12.9168    0.1670 H         1 <0>         0.1459
     38 H9         -8.0226  -13.3722   -0.0316 H         1 <0>         0.1646
     39 H10        -8.9037   -9.3211   -0.1960 H         1 <0>         0.1622
     40 H11        -5.3127   -2.3619    0.0029 H         1 <0>         0.4256
     41 H12        -6.7088   -3.2965    0.0022 H         1 <0>         0.3942
@<TRIPOS>BOND
     1    1    2 1
     2    1   30 1
     3    1   31 1
     4    1   32 1
     5    2    6 1
     6    2    3 2
     7    3    4 1
     8    3   33 1
     9    4    5 2
    10    4    7 1
    11    5    6 1
    12    7    8 am
    13    7   34 1
    14    8    9 2
    15    8   10 1
    16   10   18 1
    17   10   11 2
    18   11   12 1
    19   11   29 1
    20   12   17 ar
    21   12   13 ar
    22   13   14 ar
    23   13   25 1
    24   14   15 ar
    25   14   35 1
    26   15   16 ar
    27   15   19 1
    28   16   17 ar
    29   17   18 1
    30   19   24 ar
    31   19   20 ar
    32   20   21 ar
    33   20   36 1
    34   21   22 ar
    35   21   37 1
    36   22   23 ar
    37   22   38 1
    38   23   24 ar
    39   24   39 1
    40   25   26 1
    41   25   27 1
    42   25   28 1
    43   29   40 1
    44   29   41 1
@<TRIPOS>MOLECULE
ZINC27816997
   51    53     0     0     0
SMALL
USER_CHARGES
(4R)-4-hydroxy-N'-(2-methoxybenzoyl)-3,6,6-trimethyl-5,7-dihydro-4H-benzofuran-2-carbohydrazide
@<TRIPOS>ATOM
      1 C1          4.2543    2.9157    1.2859 C.3       1 <0>        -0.0886
      2 C2          3.4213    1.7115    1.6422 C.2       1 <0>        -0.0377
      3 C3          2.1963    1.3470    1.0792 C.2       1 <0>        -0.1885
      4 C4          1.7952    0.2030    1.6860 C.2       1 <0>         0.0484
      5 O1          2.7139   -0.1444    2.5901 O.3       1 <0>        -0.1559
      6 C5          3.7163    0.7614    2.5807 C.2       1 <0>        -0.1002
      7 C6          4.9120    0.7313    3.4293 C.2       1 <0>         0.6110
      8 O2          5.7506    1.6077    3.3304 O.2       1 <0>        -0.5260
      9 N1          5.0822   -0.2668    4.3188 N.am      1 <0>        -0.5225
     10 N2          6.2245   -0.2955    5.1295 N.am      1 <0>        -0.5319
     11 C7          6.3947   -1.2937    6.0190 C.2       1 <0>         0.5657
     12 O3          5.5569   -2.1693    6.1179 O.2       1 <0>        -0.5223
     13 C8          7.5976   -1.3239    6.8727 C.ar      1 <0>        -0.1675
     14 C9          8.5628   -0.3198    6.7624 C.ar      1 <0>        -0.0465
     15 C10         9.6840   -0.3538    7.5626 C.ar      1 <0>        -0.1642
     16 C11         9.8591   -1.3795    8.4773 C.ar      1 <0>        -0.0468
     17 C12         8.9134   -2.3783    8.5963 C.ar      1 <0>        -0.2189
     18 C13         7.7758   -2.3567    7.8029 C.ar      1 <0>         0.1901
     19 O4          6.8426   -3.3339    7.9232 O.3       1 <0>        -0.2814
     20 C14         7.0924   -4.3537    8.8925 C.3       1 <0>         0.0164
     21 C15         0.5106   -0.5180    1.3541 C.3       1 <0>        -0.0383
     22 C16         0.0021   -0.0041    0.0020 C.3       1 <0>        -0.0550
     23 C17        -0.0187    1.5269    0.0104 C.3       1 <0>        -0.1418
     24 C18         1.4207    2.0568   -0.0005 C.3       1 <0>         0.1900
     25 H1          1.9061    1.9356   -0.9801 H         1 <0>         0.0659
     26 O5          1.4179    3.4630    0.2541 O.3       1 <0>        -0.5919
     27 C19        -1.4128   -0.5316   -0.2442 C.3       1 <0>        -0.1436
     28 C20         0.9296   -0.4951   -1.1113 C.3       1 <0>        -0.1537
     29 H2          3.7500    3.4892    0.4942 H         1 <0>         0.0788
     30 H3          5.2409    2.5862    0.9282 H         1 <0>         0.0738
     31 H4          4.3800    3.5507    2.1753 H         1 <0>         0.0772
     32 H5          4.3242   -1.0589    4.4083 H         1 <0>         0.4630
     33 H6          6.9825    0.4966    5.0401 H         1 <0>         0.4539
     34 H7          8.4304    0.4816    6.0507 H         1 <0>         0.1330
     35 H8         10.4295    0.4228    7.4765 H         1 <0>         0.1342
     36 H9         10.7408   -1.3981    9.1008 H         1 <0>         0.1330
     37 H10         9.0572   -3.1747    9.3115 H         1 <0>         0.1379
     38 H11         6.2634   -5.0767    8.8860 H         1 <0>         0.1061
     39 H12         7.1743   -3.8987    9.8906 H         1 <0>         0.0588
     40 H13         8.0318   -4.8707    8.6470 H         1 <0>         0.0588
     41 H14         0.7014   -1.5999    1.2977 H         1 <0>         0.0947
     42 H15        -0.2353   -0.3176    2.1373 H         1 <0>         0.0976
     43 H16        -0.5507    1.8912   -0.8808 H         1 <0>         0.0763
     44 H17        -0.5336    1.8817    0.9154 H         1 <0>         0.0783
     45 H18         0.8968    4.1454   -0.4335 H         1 <0>         0.4092
     46 H19        -1.7779   -0.1631   -1.2142 H         1 <0>         0.0637
     47 H20        -2.0799   -0.1795    0.5565 H         1 <0>         0.0604
     48 H21        -1.3979   -1.6315   -0.2519 H         1 <0>         0.0623
     49 H22         0.5650   -0.1265   -2.0815 H         1 <0>         0.0622
     50 H23         0.9434   -1.5950   -1.1186 H         1 <0>         0.0608
     51 H24         1.9472   -0.1168   -0.9342 H         1 <0>         0.0614
@<TRIPOS>BOND
     1    1    2 1
     2    1   29 1
     3    1   30 1
     4    1   31 1
     5    2    6 2
     6    2    3 1
     7    3   24 1
     8    3    4 2
     9    4    5 1
    10    4   21 1
    11    5    6 1
    12    6    7 1
    13    7    8 2
    14    7    9 am
    15    9   10 1
    16    9   32 1
    17   10   11 am
    18   10   33 1
    19   11   12 2
    20   11   13 1
    21   13   18 ar
    22   13   14 ar
    23   14   15 ar
    24   14   34 1
    25   15   16 ar
    26   15   35 1
    27   16   17 ar
    28   16   36 1
    29   17   18 ar
    30   17   37 1
    31   18   19 1
    32   19   20 1
    33   20   38 1
    34   20   39 1
    35   20   40 1
    36   21   22 1
    37   21   41 1
    38   21   42 1
    39   22   23 1
    40   22   27 1
    41   22   28 1
    42   23   24 1
    43   23   43 1
    44   23   44 1
    45   24   25 1
    46   24   26 1
    47   26   45 1
    48   27   46 1
    49   27   47 1
    50   27   48 1
    51   28   49 1
    52   28   50 1
    53   28   51 1
@<TRIPOS>MOLECULE
ZINC45799948
   44    46     0     0     0
SMALL
USER_CHARGES

@<TRIPOS>ATOM
      1 C1          0.0052    1.5294    0.0006 C.3       1 <0>        -0.0723
      2 C2          0.0384    0.0229   -0.0198 C.2       1 <0>        -0.0175
      3 C3         -1.0270   -0.7976   -0.0231 C.2       1 <0>         0.0065
      4 N1         -0.5744   -2.0610   -0.0433 N.2       1 <0>        -0.4496
      5 C4          0.7405   -2.0359   -0.0525 C.2       1 <0>         0.2736
      6 O1          1.1425   -0.7519   -0.0442 O.3       1 <0>        -0.1867
      7 C5          1.6222   -3.2121   -0.0747 C.2       1 <0>        -0.1093
      8 C6          3.0038   -3.2659   -0.0798 C.2       1 <0>        -0.1134
      9 C7          3.6106   -4.5001   -0.1021 C.2       1 <0>        -0.1626
     10 C8          2.8404   -5.6193   -0.1182 C.2       1 <0>        -0.1701
     11 S1          1.1883   -4.9439   -0.0940 S.3       1 <0>         0.1509
     12 C9         -2.4730   -0.3736   -0.0069 C.3       1 <0>        -0.0558
     13 C10        -2.9654   -0.2133   -1.4221 C.2       1 <0>         0.5156
     14 O2         -2.2158   -0.4227   -2.3524 O.2       1 <0>        -0.5064
     15 N2         -4.2386    0.1629   -1.6541 N.am      1 <0>        -0.6729
     16 C11        -4.6695    0.4058   -2.9648 C.ar      1 <0>         0.1268
     17 C12        -5.5928    1.4119   -3.2169 C.ar      1 <0>        -0.1239
     18 C13        -6.0175    1.6513   -4.5085 C.ar      1 <0>        -0.1285
     19 C14        -5.5216    0.8857   -5.5555 C.ar      1 <0>         0.1485
     20 C15        -4.5986   -0.1206   -5.3034 C.ar      1 <0>        -0.1002
     21 C16        -4.1689   -0.3557   -4.0126 C.ar      1 <0>        -0.0994
     22 N3         -5.9529    1.1284   -6.8663 N.am      1 <0>        -0.6860
     23 C17        -6.0977    0.1029   -7.7288 C.2       1 <0>         0.7006
     24 O3         -5.7746   -1.0212   -7.3966 O.2       1 <0>        -0.5698
     25 N4         -6.6007    0.3234   -8.9596 N.am      1 <0>        -0.7460
     26 C18        -6.7581   -0.7912   -9.8971 C.3       1 <0>         0.1045
     27 H1          1.0245    1.9154   -0.0068 H         1 <0>         0.0827
     28 H2         -0.5275    1.8930   -0.8782 H         1 <0>         0.0914
     29 H3         -0.5056    1.8693    0.9015 H         1 <0>         0.0928
     30 H4          3.5925   -2.3605   -0.0670 H         1 <0>         0.1414
     31 H5          4.6877   -4.5786   -0.1070 H         1 <0>         0.1427
     32 H6          3.1492   -6.6541   -0.1366 H         1 <0>         0.1943
     33 H7         -3.0684   -1.1322    0.5012 H         1 <0>         0.1184
     34 H8         -2.5674    0.5757    0.5204 H         1 <0>         0.1164
     35 H9         -4.8567    0.2653   -0.9135 H         1 <0>         0.4118
     36 H10        -5.9791    2.0068   -2.4025 H         1 <0>         0.1304
     37 H11        -6.7356    2.4337   -4.7046 H         1 <0>         0.1294
     38 H12        -4.2132   -0.7163   -6.1177 H         1 <0>         0.1435
     39 H13        -3.4475   -1.1352   -3.8171 H         1 <0>         0.1414
     40 H14        -6.1472    2.0344   -7.1530 H         1 <0>         0.4067
     41 H15        -6.8585    1.2202   -9.2246 H         1 <0>         0.3994
     42 H16        -5.7860   -1.2459  -10.0875 H         1 <0>         0.0610
     43 H17        -7.4293   -1.5351   -9.4677 H         1 <0>         0.0610
     44 H18        -7.1763   -0.4221  -10.8336 H         1 <0>         0.0785
@<TRIPOS>BOND
     1    1    2 1
     2    1   27 1
     3    1   28 1
     4    1   29 1
     5    2    6 1
     6    2    3 2
     7    3    4 1
     8    3   12 1
     9    4    5 2
    10    5    6 1
    11    5    7 1
    12    7   11 1
    13    7    8 2
    14    8    9 1
    15    8   30 1
    16    9   10 2
    17    9   31 1
    18   10   11 1
    19   10   32 1
    20   12   13 1
    21   12   33 1
    22   12   34 1
    23   13   14 2
    24   13   15 am
    25   15   16 1
    26   15   35 1
    27   16   21 ar
    28   16   17 ar
    29   17   18 ar
    30   17   36 1
    31   18   19 ar
    32   18   37 1
    33   19   20 ar
    34   19   22 1
    35   20   21 ar
    36   20   38 1
    37   21   39 1
    38   22   23 am
    39   22   40 1
    40   23   24 2
    41   23   25 am
    42   25   26 1
    43   25   41 1
    44   26   42 1
    45   26   43 1
    46   26   44 1
@<TRIPOS>MOLECULE
ZINC08419636
   51    53     0     0     0
SMALL
USER_CHARGES

@<TRIPOS>ATOM
      1 C1         -0.0187    1.5258    0.0104 C.3       1 <0>        -0.1502
      2 C2          0.0021   -0.0041    0.0020 C.3       1 <0>        -0.0816
      3 C3         -1.4333   -0.5336    0.0129 C.3       1 <0>        -0.1204
      4 C4         -1.4126   -2.0635    0.0045 C.3       1 <0>        -0.1147
      5 C5         -0.6726   -2.5703    1.2440 C.3       1 <0>        -0.1305
      6 C6          0.7628   -2.0407    1.2331 C.3       1 <0>         0.1484
      7 C7          0.7421   -0.5109    1.2415 C.3       1 <0>        -0.0949
      8 C8          0.0259   -0.0175    2.5003 C.3       1 <0>        -0.1582
      9 N1          1.4714   -2.5260    2.4200 N.pl3     1 <0>        -0.6789
     10 C9          2.0564   -3.7401    2.4061 C.2       1 <0>         0.5611
     11 S1          1.9715   -4.7152    1.0015 S.2       1 <0>        -0.5830
     12 N2          2.7083   -4.1866    3.4980 N.pl3     1 <0>        -0.4707
     13 N3          2.7777   -3.3887    4.6475 N.am      1 <0>        -0.5448
     14 C10         3.4296   -3.8351    5.7393 C.2       1 <0>         0.5058
     15 O1          3.9560   -4.9276    5.7268 O.2       1 <0>        -0.5040
     16 C11         3.5043   -2.9768    6.9758 C.3       1 <0>         0.1050
     17 N4          4.2603   -3.6812    8.0143 N.am      1 <0>        -0.5646
     18 C12         3.7149   -4.5085    8.9241 C.2       1 <0>         0.5820
     19 O2          2.5357   -4.7850    9.0137 O.2       1 <0>        -0.4557
     20 C13         4.7909   -5.0246    9.7963 C.ar      1 <0>        -0.1381
     21 C14         4.8283   -5.8895   10.8782 C.ar      1 <0>        -0.0415
     22 C15         6.0394   -6.1724   11.4902 C.ar      1 <0>        -0.0923
     23 C16         7.2089   -5.5979   11.0285 C.ar      1 <0>        -0.0924
     24 C17         7.1867   -4.7309    9.9472 C.ar      1 <0>        -0.0415
     25 C18         5.9833   -4.4388    9.3256 C.ar      1 <0>        -0.1381
     26 C19         5.5922   -3.5904    8.1800 C.2       1 <0>         0.5820
     27 O3          6.3469   -2.9218    7.5029 O.2       1 <0>        -0.4558
     28 H1          1.0039    1.9031    0.0027 H         1 <0>         0.0551
     29 H2         -0.5459    1.8868   -0.8726 H         1 <0>         0.0584
     30 H3         -0.5289    1.8773    0.9072 H         1 <0>         0.0583
     31 H4          0.5123   -0.3556   -0.8948 H         1 <0>         0.0770
     32 H5         -1.9435   -0.1821    0.9097 H         1 <0>         0.0657
     33 H6         -1.9605   -0.1726   -0.8702 H         1 <0>         0.0664
     34 H7         -2.4352   -2.4408    0.0122 H         1 <0>         0.0680
     35 H8         -0.9024   -2.4150   -0.8923 H         1 <0>         0.0698
     36 H9         -1.1828   -2.2188    2.1408 H         1 <0>         0.0633
     37 H10        -0.6578   -3.6602    1.2380 H         1 <0>         0.0811
     38 H11         1.2730   -2.3923    0.3363 H         1 <0>         0.1194
     39 H12         1.7647   -0.1336    1.2338 H         1 <0>         0.0777
     40 H13        -0.9967   -0.3948    2.5081 H         1 <0>         0.0698
     41 H14         0.5531   -0.3786    3.3834 H         1 <0>         0.0424
     42 H15         0.0111    1.0724    2.5063 H         1 <0>         0.0680
     43 H16         1.5195   -1.9736    3.2158 H         1 <0>         0.3893
     44 H17         3.1293   -5.0604    3.4880 H         1 <0>         0.4592
     45 H18         2.3567   -2.5149    4.6575 H         1 <0>         0.4213
     46 H19         4.0035   -2.0378    6.7366 H         1 <0>         0.1386
     47 H20         2.4966   -2.7709    7.3366 H         1 <0>         0.1384
     48 H21         3.9177   -6.3409   11.2434 H         1 <0>         0.1446
     49 H22         6.0696   -6.8461   12.3337 H         1 <0>         0.1456
     50 H23         8.1463   -5.8259   11.5138 H         1 <0>         0.1455
     51 H24         8.1034   -4.2847    9.5910 H         1 <0>         0.1446
@<TRIPOS>BOND
     1    1    2 1
     2    1   28 1
     3    1   29 1
     4    1   30 1
     5    2    7 1
     6    2    3 1
     7    2   31 1
     8    3    4 1
     9    3   32 1
    10    3   33 1
    11    4    5 1
    12    4   34 1
    13    4   35 1
    14    5    6 1
    15    5   36 1
    16    5   37 1
    17    6    7 1
    18    6    9 1
    19    6   38 1
    20    7    8 1
    21    7   39 1
    22    8   40 1
    23    8   41 1
    24    8   42 1
    25    9   10 1
    26    9   43 1
    27   10   11 2
    28   10   12 1
    29   12   13 1
    30   12   44 1
    31   13   14 am
    32   13   45 1
    33   14   15 2
    34   14   16 1
    35   16   17 1
    36   16   46 1
    37   16   47 1
    38   17   26 am
    39   17   18 am
    40   18   19 2
    41   18   20 1
    42   20   25 ar
    43   20   21 ar
    44   21   22 ar
    45   21   48 1
    46   22   23 ar
    47   22   49 1
    48   23   24 ar
    49   23   50 1
    50   24   25 ar
    51   24   51 1
    52   25   26 1
    53   26   27 2
@<TRIPOS>MOLECULE
ZINC50589236
   53    55     0     0     0
SMALL
USER_CHARGES

@<TRIPOS>ATOM
      1 C1         -3.6382   -9.3281    1.1958 C.3       1 <0>        -0.0718
      2 C2         -2.7252   -8.1674    0.8955 C.2       1 <0>        -0.0112
      3 C3         -2.3199   -7.7732   -0.3254 C.2       1 <0>        -0.0456
      4 O1         -1.5177   -6.7038   -0.1549 O.3       1 <0>        -0.1937
      5 C4         -1.4414   -6.4565    1.1643 C.2       1 <0>         0.2287
      6 N1         -2.1765   -7.3398    1.7977 N.2       1 <0>        -0.4594
      7 C5         -0.6639   -5.3687    1.7951 C.ar      1 <0>         0.0031
      8 C6          0.0722   -4.4844    1.0043 C.ar      1 <0>        -0.1032
      9 C7          0.7966   -3.4697    1.5955 C.ar      1 <0>        -0.0976
     10 C8          0.7967   -3.3246    2.9704 C.ar      1 <0>        -0.1235
     11 C9          0.0677   -4.1998    3.7661 C.ar      1 <0>         0.1439
     12 C10        -0.6680   -5.2191    3.1814 C.ar      1 <0>        -0.0743
     13 N2          0.0718   -4.0492    5.1575 N.am      1 <0>        -0.6681
     14 C11        -0.0111   -5.1340    5.9530 C.2       1 <0>         0.5090
     15 O2          0.0071   -6.2451    5.4671 O.2       1 <0>        -0.5084
     16 C12        -0.1264   -4.9663    7.4462 C.3       1 <0>         0.1237
     17 N3         -0.2009   -6.2844    8.0813 N.am      1 <0>        -0.7378
     18 C13        -0.3090   -6.3817    9.4212 C.2       1 <0>         0.7085
     19 O3         -0.3446   -5.3755   10.1028 O.2       1 <0>        -0.5905
     20 N4         -0.3775   -7.5943   10.0054 N.am      1 <0>        -0.7422
     21 C14        -0.4949   -7.7000   11.4619 C.3       1 <0>         0.1453
     22 C15        -0.5537   -9.1753   11.8630 C.3       1 <0>        -0.1058
     23 C16        -1.8727   -9.8050   11.3695 C.3       1 <0>        -0.1225
     24 C17        -2.2738  -10.7829   12.5017 C.3       1 <0>        -0.1262
     25 C18        -1.8689  -10.0092   13.7810 C.3       1 <0>        -0.1261
     26 C19        -0.5513   -9.3052   13.3963 C.3       1 <0>        -0.1176
     27 C20        -2.6930   -8.4098   -1.6394 C.3       1 <0>        -0.0682
     28 H1         -4.6732   -8.9861    1.1939 H         1 <0>         0.0762
     29 H2         -3.5087  -10.0984    0.4356 H         1 <0>         0.0758
     30 H3         -3.3932   -9.7392    2.1751 H         1 <0>         0.0770
     31 H4          0.0749   -4.5947   -0.0701 H         1 <0>         0.1333
     32 H5          1.3658   -2.7868    0.9822 H         1 <0>         0.1381
     33 H6          1.3657   -2.5285    3.4275 H         1 <0>         0.1347
     34 H7         -1.2392   -5.8974    3.7979 H         1 <0>         0.1511
     35 H8          0.1344   -3.1641    5.5493 H         1 <0>         0.4179
     36 H9          0.7466   -4.4316    7.8203 H         1 <0>         0.1032
     37 H10        -1.0275   -4.3991    7.6795 H         1 <0>         0.1045
     38 H11        -0.1725   -7.0871    7.5374 H         1 <0>         0.4088
     39 H12        -0.3490   -8.3970    9.4616 H         1 <0>         0.3982
     40 H13         0.3694   -7.2301   11.9312 H         1 <0>         0.0671
     41 H14        -1.4047   -7.1976   11.7905 H         1 <0>         0.0687
     42 H15         0.2971   -9.7107   11.4416 H         1 <0>         0.0789
     43 H16        -2.6363   -9.0381   11.2396 H         1 <0>         0.0695
     44 H17        -1.7117  -10.3462   10.4372 H         1 <0>         0.0651
     45 H18        -3.3473  -10.9710   12.4875 H         1 <0>         0.0666
     46 H19        -1.7160  -11.7160   12.4218 H         1 <0>         0.0670
     47 H20        -2.6319   -9.2753   14.0405 H         1 <0>         0.0665
     48 H21        -1.7051  -10.6995   14.6085 H         1 <0>         0.0662
     49 H22         0.3002   -9.9043   13.7189 H         1 <0>         0.0682
     50 H23        -0.5082   -8.3171   13.8546 H         1 <0>         0.0693
     51 H24        -3.5982   -7.9415   -2.0260 H         1 <0>         0.0862
     52 H25        -1.8803   -8.2737   -2.3528 H         1 <0>         0.0797
     53 H26        -2.8705   -9.4748   -1.4897 H         1 <0>         0.0939
@<TRIPOS>BOND
     1    1    2 1
     2    1   28 1
     3    1   29 1
     4    1   30 1
     5    2    6 1
     6    2    3 2
     7    3    4 1
     8    3   27 1
     9    4    5 1
    10    5    6 2
    11    5    7 1
    12    7   12 ar
    13    7    8 ar
    14    8    9 ar
    15    8   31 1
    16    9   10 ar
    17    9   32 1
    18   10   11 ar
    19   10   33 1
    20   11   12 ar
    21   11   13 1
    22   12   34 1
    23   13   14 am
    24   13   35 1
    25   14   15 2
    26   14   16 1
    27   16   17 1
    28   16   36 1
    29   16   37 1
    30   17   18 am
    31   17   38 1
    32   18   19 2
    33   18   20 am
    34   20   21 1
    35   20   39 1
    36   21   22 1
    37   21   40 1
    38   21   41 1
    39   22   26 1
    40   22   23 1
    41   22   42 1
    42   23   24 1
    43   23   43 1
    44   23   44 1
    45   24   25 1
    46   24   45 1
    47   24   46 1
    48   25   26 1
    49   25   47 1
    50   25   48 1
    51   26   49 1
    52   26   50 1
    53   27   51 1
    54   27   52 1
    55   27   53 1
@<TRIPOS>MOLECULE
ZINC67463988
   37    38     0     0     0
SMALL
USER_CHARGES

@<TRIPOS>ATOM
      1 C1          0.3076    2.2244   -1.1357 C.3       1 <0>        -0.0734
      2 C2          0.1848    0.7252   -1.0444 C.2       1 <0>         0.2514
      3 N1          0.2374   -0.1238   -2.0769 N.2       1 <0>        -0.5414
      4 C3          0.0978   -1.3501   -1.6557 C.2       1 <0>         0.2940
      5 O1         -0.0501   -1.3222   -0.3253 O.3       1 <0>        -0.1053
      6 N2          0.0156    0.0448    0.0528 N.2       1 <0>        -0.3414
      7 C4          0.1023   -2.5860   -2.5181 C.3       1 <0>        -0.0340
      8 C5          1.5332   -3.1116   -2.6487 C.3       1 <0>        -0.1310
      9 C6          1.5377   -4.3663   -3.5242 C.3       1 <0>         0.1383
     10 N3          2.9079   -4.8696   -3.6493 N.am      1 <0>        -0.7438
     11 C7          3.1558   -5.9746   -4.3800 C.2       1 <0>         0.7149
     12 O2          2.2424   -6.5538   -4.9354 O.2       1 <0>        -0.5685
     13 N4          4.4163   -6.4376   -4.4951 N.am      1 <0>        -0.5272
     14 N5          5.4689   -5.7702   -3.8552 N.pl3     1 <0>        -0.5500
     15 C8          6.7895   -6.1786   -4.0701 C.ar      1 <0>         0.2227
     16 C9          7.7115   -6.1284   -3.0318 C.ar      1 <0>        -0.0661
     17 C10         9.0156   -6.5326   -3.2473 C.ar      1 <0>        -0.0551
     18 C11         9.4036   -6.9863   -4.4957 C.ar      1 <0>        -0.0510
     19 C12         8.4877   -7.0374   -5.5317 C.ar      1 <0>        -0.0555
     20 C13         7.1806   -6.6405   -5.3208 C.ar      1 <0>        -0.0762
     21 Cl1         6.0305   -6.7122   -6.6192 Cl        1 <0>        -0.0293
     22 Cl2        11.0427   -7.4919   -4.7627 Cl        1 <0>        -0.0415
     23 Cl3         7.2260   -5.5583   -1.4656 Cl        1 <0>        -0.0374
     24 H1          1.3561    2.5090   -1.0478 H         1 <0>         0.0974
     25 H2         -0.0816    2.5631   -2.0958 H         1 <0>         0.0984
     26 H3         -0.2628    2.6854   -0.3293 H         1 <0>         0.0920
     27 H4         -0.5253   -3.3507   -2.0603 H         1 <0>         0.1119
     28 H5         -0.2864   -2.3408   -3.5065 H         1 <0>         0.1209
     29 H6          2.1608   -2.3469   -3.1065 H         1 <0>         0.0837
     30 H7          1.9219   -3.3568   -1.6603 H         1 <0>         0.0806
     31 H8          0.9102   -5.1310   -3.0665 H         1 <0>         0.0780
     32 H9          1.1491   -4.1211   -4.5126 H         1 <0>         0.0784
     33 H10         3.6366   -4.4075   -3.2062 H         1 <0>         0.3923
     34 H11         4.5948   -7.2329   -5.0210 H         1 <0>         0.4349
     35 H12         5.2819   -5.0250   -3.2631 H         1 <0>         0.4269
     36 H13         9.7327   -6.4938   -2.4406 H         1 <0>         0.1561
     37 H14         8.7935   -7.3920   -6.5050 H         1 <0>         0.1551
@<TRIPOS>BOND
     1    1    2 1
     2    1   24 1
     3    1   25 1
     4    1   26 1
     5    2    6 2
     6    2    3 1
     7    3    4 2
     8    4    5 1
     9    4    7 1
    10    5    6 1
    11    7    8 1
    12    7   27 1
    13    7   28 1
    14    8    9 1
    15    8   29 1
    16    8   30 1
    17    9   10 1
    18    9   31 1
    19    9   32 1
    20   10   11 am
    21   10   33 1
    22   11   12 2
    23   11   13 am
    24   13   14 1
    25   13   34 1
    26   14   15 1
    27   14   35 1
    28   15   20 ar
    29   15   16 ar
    30   16   17 ar
    31   16   23 1
    32   17   18 ar
    33   17   36 1
    34   18   19 ar
    35   18   22 1
    36   19   20 ar
    37   19   37 1
    38   20   21 1
@<TRIPOS>MOLECULE
ZINC05331568
   34    36     0     0     0
SMALL
USER_CHARGES
5-[(4-aminophenyl)methylene]-2-phenylimino-thiazolidin-4-one
@<TRIPOS>ATOM
      1 C1         -1.7810   -4.3114    2.1114 C.ar      1 <0>        -0.1241
      2 C2         -0.9374   -4.7266    1.0961 C.ar      1 <0>        -0.1008
      3 C3          0.1172   -3.9298    0.7021 C.ar      1 <0>        -0.1006
      4 C4          0.3328   -2.7012    1.3306 C.ar      1 <0>         0.0908
      5 C5         -0.5192   -2.2910    2.3587 C.ar      1 <0>        -0.1674
      6 C6         -1.5734   -3.0954    2.7384 C.ar      1 <0>        -0.0985
      7 N1          1.3771   -1.9056    0.9448 N.2       1 <0>        -0.4582
      8 C7          1.1911   -0.6164    0.7688 C.2       1 <0>         0.3755
      9 N2          0.0307    0.1105    0.9220 N.am      1 <0>        -0.6899
     10 C8          0.0184    1.4144    0.7024 C.2       1 <0>         0.5479
     11 O1         -0.9987    2.0712    0.8286 O.2       1 <0>        -0.4783
     12 C9          1.2912    2.0359    0.2917 C.2       1 <0>        -0.2504
     13 C10         1.5624    3.3352    0.0051 C.2       1 <0>         0.0954
     14 C11         0.4688    4.3096   -0.0901 C.ar      1 <0>        -0.1661
     15 C12        -0.7416    3.9502   -0.6968 C.ar      1 <0>         0.0114
     16 C13        -1.7620    4.8625   -0.7794 C.ar      1 <0>        -0.2100
     17 C14        -1.5929    6.1473   -0.2707 C.ar      1 <0>         0.2453
     18 C15        -0.3900    6.5105    0.3288 C.ar      1 <0>        -0.2139
     19 C16         0.6343    5.6036    0.4204 C.ar      1 <0>        -0.0279
     20 N3         -2.6298    7.0720   -0.3622 N.pl3     1 <0>        -0.8697
     21 S1          2.3804    0.6194    0.2730 S.3       1 <0>         0.0826
     22 H1         -2.6050   -4.9394    2.4161 H         1 <0>         0.1277
     23 H2         -1.1051   -5.6770    0.6113 H         1 <0>         0.1316
     24 H3          0.7750   -4.2553   -0.0902 H         1 <0>         0.1332
     25 H4         -0.3555   -1.3444    2.8522 H         1 <0>         0.1208
     26 H5         -2.2356   -2.7776    3.5301 H         1 <0>         0.1277
     27 H6         -0.7850   -0.3385    1.1939 H         1 <0>         0.4167
     28 H7          2.5829    3.6516   -0.1530 H         1 <0>         0.1523
     29 H8         -0.8722    2.9551   -1.0957 H         1 <0>         0.1204
     30 H9         -2.6967    4.5853   -1.2440 H         1 <0>         0.1220
     31 H10        -0.2634    7.5084    0.7221 H         1 <0>         0.1245
     32 H11         1.5673    5.8865    0.8850 H         1 <0>         0.1283
     33 H12        -2.5135    7.9677   -0.0085 H         1 <0>         0.4007
     34 H13        -3.4685    6.8205   -0.7796 H         1 <0>         0.4008
@<TRIPOS>BOND
     1    1    6 ar
     2    1    2 ar
     3    1   22 1
     4    2    3 ar
     5    2   23 1
     6    3    4 ar
     7    3   24 1
     8    4    5 ar
     9    4    7 1
    10    5    6 ar
    11    5   25 1
    12    6   26 1
    13    7    8 2
    14    8   21 1
    15    8    9 1
    16    9   10 am
    17    9   27 1
    18   10   11 2
    19   10   12 1
    20   12   13 2
    21   12   21 1
    22   13   14 1
    23   13   28 1
    24   14   19 ar
    25   14   15 ar
    26   15   16 ar
    27   15   29 1
    28   16   17 ar
    29   16   30 1
    30   17   18 ar
    31   17   20 1
    32   18   19 ar
    33   18   31 1
    34   19   32 1
    35   20   33 1
    36   20   34 1
@<TRIPOS>MOLECULE
ZINC20371062
   38    39     0     0     0
SMALL
USER_CHARGES
5-amino-N-(2-fluoro-4-methyl-phenyl)-2,3-dimethyl-benzenesulfonamide
@<TRIPOS>ATOM
      1 C1          1.3209   -6.3096   -3.4416 C.3       1 <0>        -0.1183
      2 C2          1.3520   -5.0297   -2.6467 C.ar      1 <0>        -0.0726
      3 C3          2.5642   -4.4519   -2.3168 C.ar      1 <0>        -0.0989
      4 C4          2.5974   -3.2815   -1.5837 C.ar      1 <0>        -0.1421
      5 C5          1.4116   -2.6785   -1.1865 C.ar      1 <0>         0.1274
      6 C6          0.1934   -3.2586   -1.5239 C.ar      1 <0>         0.0842
      7 C7          0.1681   -4.4330   -2.2534 C.ar      1 <0>        -0.1343
      8 F1         -0.9631   -2.6758   -1.1393 F         1 <0>        -0.1341
      9 N1          1.4419   -1.4906   -0.4492 N.pl3     1 <0>        -1.0654
     10 S1          2.6127   -0.3588   -0.7505 S.o2      1 <0>         2.6963
     11 O1          2.2961    0.7748    0.0457 O.2       1 <0>        -0.9455
     12 O2          3.8611   -1.0310   -0.6566 O.2       1 <0>        -0.9535
     13 C8          2.4346    0.1404   -2.4309 C.ar      1 <0>        -0.6215
     14 C9          3.4406   -0.1245   -3.3395 C.ar      1 <0>        -0.1074
     15 C10         3.2995    0.2694   -4.6639 C.ar      1 <0>         0.2105
     16 C11         2.1460    0.9287   -5.0701 C.ar      1 <0>        -0.1463
     17 C12         1.1441    1.1903   -4.1565 C.ar      1 <0>        -0.0541
     18 C13         1.2855    0.7917   -2.8397 C.ar      1 <0>        -0.0420
     19 C14         0.1872    1.0730   -1.8470 C.3       1 <0>        -0.1676
     20 C15        -0.1074    1.9054   -4.5962 C.3       1 <0>        -0.1298
     21 N2          4.3150    0.0036   -5.5852 N.pl3     1 <0>        -0.8980
     22 H1          2.3501   -6.6304   -3.6605 H         1 <0>         0.0708
     23 H2          0.7805   -6.1423   -4.3850 H         1 <0>         0.0735
     24 H3          0.8094   -7.0904   -2.8595 H         1 <0>         0.0745
     25 H4          3.4866   -4.9185   -2.6295 H         1 <0>         0.1360
     26 H5          3.5450   -2.8334   -1.3236 H         1 <0>         0.1678
     27 H6         -0.7771   -4.8845   -2.5166 H         1 <0>         0.1395
     28 H7          0.6881   -1.3080    0.3308 H         1 <0>         0.4570
     29 H8          4.3359   -0.6375   -3.0206 H         1 <0>         0.1388
     30 H9          2.0332    1.2366   -6.0991 H         1 <0>         0.1265
     31 H10        -0.6394    1.5937   -2.3525 H         1 <0>         0.0900
     32 H11         0.5785    1.7060   -1.0369 H         1 <0>         0.0991
     33 H12        -0.1791    0.1246   -1.4269 H         1 <0>         0.0740
     34 H13        -0.7839    2.0225   -3.7368 H         1 <0>         0.0801
     35 H14        -0.6086    1.3188   -5.3802 H         1 <0>         0.0729
     36 H15         0.1569    2.8969   -4.9926 H         1 <0>         0.0738
     37 H16         4.2019    0.3161   -6.6338 H         1 <0>         0.4187
     38 H17         5.2279   -0.5183   -5.2622 H         1 <0>         0.4202
@<TRIPOS>BOND
     1    1    2 1
     2    1   22 1
     3    1   23 1
     4    1   24 1
     5    2    7 ar
     6    2    3 ar
     7    3    4 ar
     8    3   25 1
     9    4    5 ar
    10    4   26 1
    11    5    6 ar
    12    5    9 1
    13    6    7 ar
    14    6    8 1
    15    7   27 1
    16    9   10 1
    17    9   28 1
    18   10   11 2
    19   10   12 2
    20   10   13 1
    21   13   18 ar
    22   13   14 ar
    23   14   15 ar
    24   14   29 1
    25   15   16 ar
    26   15   21 1
    27   16   17 ar
    28   16   30 1
    29   17   18 ar
    30   17   20 1
    31   18   19 1
    32   19   31 1
    33   19   32 1
    34   19   33 1
    35   20   34 1
    36   20   35 1
    37   20   36 1
    38   21   37 1
    39   21   38 1
@<TRIPOS>MOLECULE
ZINC37062979
   44    45     0     0     0
SMALL
USER_CHARGES

@<TRIPOS>ATOM
      1 C1         -0.2326    1.4453    0.0837 C.3       1 <0>        -0.1305
      2 C2         -0.3143   -0.0578    0.0129 C.ar      1 <0>        -0.0305
      3 C3         -0.7233   -0.6722   -1.1567 C.ar      1 <0>        -0.0996
      4 C4         -0.7993   -2.0493   -1.2250 C.ar      1 <0>        -0.1341
      5 C5         -0.4644   -2.8177   -0.1171 C.ar      1 <0>         0.1905
      6 C6         -0.0541   -2.1974    1.0560 C.ar      1 <0>        -0.0573
      7 C7          0.0251   -0.8197    1.1156 C.ar      1 <0>        -0.6344
      8 S1          0.5523   -0.0321    2.6010 S.o2      1 <0>         2.6892
      9 O1          1.2285   -1.0200    3.3666 O.2       1 <0>        -0.9538
     10 O2          1.1702    1.1884    2.2163 O.2       1 <0>        -0.9570
     11 N1         -0.8102    0.3742    3.4500 N.pl3     1 <0>        -1.1121
     12 C8         -1.7195   -0.6735    3.9208 C.3       1 <0>         0.1566
     13 H1         -1.5677   -1.5780    3.3318 H         1 <0>         0.0872
     14 C9         -1.4355   -0.9709    5.3945 C.3       1 <0>        -0.1389
     15 C10        -2.3851   -2.0651    5.8862 C.3       1 <0>        -0.1190
     16 C11        -3.8319   -1.5922    5.7310 C.3       1 <0>        -0.1235
     17 C12        -4.1160   -1.2948    4.2573 C.3       1 <0>        -0.1138
     18 C13        -3.1663   -0.2006    3.7656 C.3       1 <0>        -0.0957
     19 H2         -3.3181    0.7039    4.3546 H         1 <0>         0.0787
     20 C14        -3.4503    0.0968    2.2919 C.3       1 <0>        -0.1500
     21 C15         0.3096   -3.0268    2.2605 C.3       1 <0>        -0.1348
     22 N2         -0.5406   -4.2108   -0.1825 N.pl3     1 <0>        -0.8771
     23 H3          0.7610    1.7701   -0.2250 H         1 <0>         0.0880
     24 H4         -0.9797    1.8814   -0.5794 H         1 <0>         0.0713
     25 H5         -0.4200    1.7716    1.1067 H         1 <0>         0.0719
     26 H6         -0.9838   -0.0743   -2.0175 H         1 <0>         0.1307
     27 H7         -1.1191   -2.5284   -2.1386 H         1 <0>         0.1277
     28 H8         -1.0062    1.3059    3.6356 H         1 <0>         0.4183
     29 H9         -0.4047   -1.3077    5.5051 H         1 <0>         0.0779
     30 H10        -1.5873   -0.0664    5.9835 H         1 <0>         0.0707
     31 H11        -2.2333   -2.9696    5.2972 H         1 <0>         0.0637
     32 H12        -2.1828   -2.2769    6.9361 H         1 <0>         0.0679
     33 H13        -4.5085   -2.3717    6.0813 H         1 <0>         0.0642
     34 H14        -3.9838   -0.6877    6.3200 H         1 <0>         0.0640
     35 H15        -3.9641   -2.1993    3.6683 H         1 <0>         0.0637
     36 H16        -5.1467   -0.9580    4.1467 H         1 <0>         0.0675
     37 H17        -3.2985   -0.8077    1.7029 H         1 <0>         0.0547
     38 H18        -4.4810    0.4336    2.1813 H         1 <0>         0.0572
     39 H19        -2.7737    0.8763    1.9416 H         1 <0>         0.0584
     40 H20         1.3905   -3.1634    2.2946 H         1 <0>         0.0900
     41 H21        -0.0210   -2.5175    3.1656 H         1 <0>         0.0900
     42 H22        -0.1775   -3.9996    2.1924 H         1 <0>         0.0623
     43 H23        -0.8276   -4.6428   -1.0022 H         1 <0>         0.3996
     44 H24        -0.3065   -4.7463    0.5917 H         1 <0>         0.4002
@<TRIPOS>BOND
     1    1    2 1
     2    1   23 1
     3    1   24 1
     4    1   25 1
     5    2    7 ar
     6    2    3 ar
     7    3    4 ar
     8    3   26 1
     9    4    5 ar
    10    4   27 1
    11    5    6 ar
    12    5   22 1
    13    6    7 ar
    14    6   21 1
    15    7    8 1
    16    8    9 2
    17    8   10 2
    18    8   11 1
    19   11   12 1
    20   11   28 1
    21   12   13 1
    22   12   18 1
    23   12   14 1
    24   14   15 1
    25   14   29 1
    26   14   30 1
    27   15   16 1
    28   15   31 1
    29   15   32 1
    30   16   17 1
    31   16   33 1
    32   16   34 1
    33   17   18 1
    34   17   35 1
    35   17   36 1
    36   18   19 1
    37   18   20 1
    38   20   37 1
    39   20   38 1
    40   20   39 1
    41   21   40 1
    42   21   41 1
    43   21   42 1
    44   22   43 1
    45   22   44 1
@<TRIPOS>MOLECULE
ZINC53736196
   46    48     0     0     0
SMALL
USER_CHARGES

@<TRIPOS>ATOM
      1 C1         -0.0187    1.5258    0.0104 C.3       1 <0>        -0.1808
      2 C2          0.0021   -0.0041    0.0020 C.3       1 <0>         0.1864
      3 H1         -1.0205   -0.3814    0.0098 H         1 <0>         0.0690
      4 C3          0.7074   -0.4901   -1.2379 C.2       1 <0>         0.2857
      5 N1          1.9955   -0.4649   -1.4208 N.2       1 <0>        -0.4749
      6 C4          2.2938   -0.9769   -2.6427 C.ar      1 <0>         0.0915
      7 C5          3.4912   -1.1820   -3.3334 C.ar      1 <0>        -0.1577
      8 C6          3.4656   -1.7392   -4.5979 C.ar      1 <0>         0.2068
      9 C7          2.2536   -2.0962   -5.1862 C.ar      1 <0>        -0.1633
     10 C8          1.0676   -1.8982   -4.5140 C.ar      1 <0>        -0.0653
     11 C9          1.0768   -1.3400   -3.2429 C.ar      1 <0>         0.0092
     12 N2          0.0910   -1.0242   -2.3260 N.pl3     1 <0>        -0.4770
     13 C10        -1.3502   -1.2245   -2.4966 C.3       1 <0>         0.1320
     14 C11        -1.8344   -0.4335   -3.7133 C.3       1 <0>        -0.1311
     15 C12        -3.2166   -0.9384   -4.1326 C.3       1 <0>        -0.1375
     16 C13        -4.2713   -0.4021   -3.1626 C.3       1 <0>        -0.1223
     17 C14        -4.2043   -1.1876   -1.8514 C.3       1 <0>        -0.1297
     18 C15        -4.0729   -2.6809   -2.1568 C.3       1 <0>        -0.1313
     19 C16        -2.6968   -3.1748   -1.7059 C.3       1 <0>        -0.1187
     20 C17        -1.6366   -2.7124   -2.7076 C.3       1 <0>        -0.1397
     21 N3          4.6632   -1.9456   -5.2915 N.pl3     1 <0>        -0.8800
     22 O1          0.6932   -0.4774    1.1597 O.3       1 <0>        -0.5450
     23 H2          1.0039    1.9031    0.0027 H         1 <0>         0.0783
     24 H3         -0.5459    1.8868   -0.8726 H         1 <0>         0.0666
     25 H4         -0.5289    1.8773    0.9072 H         1 <0>         0.0722
     26 H5          4.4323   -0.9061   -2.8812 H         1 <0>         0.1254
     27 H6          2.2441   -2.5303   -6.1751 H         1 <0>         0.1279
     28 H7          0.1317   -2.1766   -4.9754 H         1 <0>         0.1214
     29 H8         -1.8732   -0.8767   -1.6057 H         1 <0>         0.1093
     30 H9         -1.8961    0.6244   -3.4579 H         1 <0>         0.0702
     31 H10        -1.1331   -0.5681   -4.5368 H         1 <0>         0.0742
     32 H11        -3.4400   -0.5904   -5.1411 H         1 <0>         0.0679
     33 H12        -3.2264   -2.0282   -4.1138 H         1 <0>         0.0896
     34 H13        -4.0799    0.6526   -2.9645 H         1 <0>         0.0634
     35 H14        -5.2616   -0.5151   -3.6037 H         1 <0>         0.0653
     36 H15        -3.3408   -0.8576   -1.2739 H         1 <0>         0.0632
     37 H16        -5.1138   -1.0131   -1.2765 H         1 <0>         0.0644
     38 H17        -4.8487   -3.2304   -1.6237 H         1 <0>         0.0638
     39 H18        -4.1839   -2.8437   -3.2289 H         1 <0>         0.0760
     40 H19        -2.4689   -2.7667   -0.7211 H         1 <0>         0.0641
     41 H20        -2.6996   -4.2637   -1.6564 H         1 <0>         0.0691
     42 H21        -2.0015   -2.8718   -3.7222 H         1 <0>         0.0859
     43 H22        -0.7206   -3.2837   -2.5568 H         1 <0>         0.0735
     44 H23         5.5082   -1.6978   -4.8847 H         1 <0>         0.3985
     45 H24         4.6484   -2.3365   -6.1792 H         1 <0>         0.3979
     46 H25         0.2938   -0.2021    1.9962 H         1 <0>         0.3860
@<TRIPOS>BOND
     1    1    2 1
     2    1   23 1
     3    1   24 1
     4    1   25 1
     5    2    3 1
     6    2    4 1
     7    2   22 1
     8    4   12 1
     9    4    5 2
    10    5    6 1
    11    6   11 ar
    12    6    7 ar
    13    7    8 ar
    14    7   26 1
    15    8    9 ar
    16    8   21 1
    17    9   10 ar
    18    9   27 1
    19   10   11 ar
    20   10   28 1
    21   11   12 1
    22   12   13 1
    23   13   20 1
    24   13   14 1
    25   13   29 1
    26   14   15 1
    27   14   30 1
    28   14   31 1
    29   15   16 1
    30   15   32 1
    31   15   33 1
    32   16   17 1
    33   16   34 1
    34   16   35 1
    35   17   18 1
    36   17   36 1
    37   17   37 1
    38   18   19 1
    39   18   38 1
    40   18   39 1
    41   19   20 1
    42   19   40 1
    43   19   41 1
    44   20   42 1
    45   20   43 1
    46   21   44 1
    47   21   45 1
    48   22   46 1
@<TRIPOS>MOLECULE
ZINC58344874
   36    38     0     0     0
SMALL
USER_CHARGES

@<TRIPOS>ATOM
      1 C1         -0.0223    1.3298   -0.0059 C.ar      1 <0>        -0.1064
      2 C2          1.1598    2.0468   -0.0086 C.ar      1 <0>        -0.1233
      3 C3          2.3696    1.3809   -0.0208 C.ar      1 <0>        -0.0784
      4 C4          2.4031   -0.0037   -0.0304 C.ar      1 <0>        -0.1207
      5 C5          1.2213   -0.7204   -0.0278 C.ar      1 <0>        -0.0858
      6 C6          0.0091   -0.0508   -0.0155 C.ar      1 <0>        -0.1116
      7 C7          1.5225   -2.2038   -0.0405 C.3       1 <0>        -0.1189
      8 C8          2.9947   -2.3132   -0.4911 C.3       1 <0>         0.0992
      9 H1          3.0613   -2.4269   -1.5731 H         1 <0>         0.0894
     10 C9          3.5794   -0.9563   -0.0449 C.3       1 <0>         0.2139
     11 H2          4.3324   -0.6167   -0.7560 H         1 <0>         0.1061
     12 N1          4.1589   -1.0686    1.2959 N.am      1 <0>        -0.7109
     13 C10         5.0926   -0.1859    1.7026 C.2       1 <0>         0.7112
     14 O1          5.4539    0.7038    0.9567 O.2       1 <0>        -0.5667
     15 N2          5.6258   -0.2893    2.9361 N.am      1 <0>        -0.6774
     16 C11         6.6794    0.5534    3.3172 C.ar      1 <0>         0.1642
     17 C12         7.5086    1.1089    2.3527 C.ar      1 <0>        -0.0868
     18 C13         8.5468    1.9394    2.7289 C.ar      1 <0>        -0.1071
     19 C14         8.7624    2.2186    4.0675 C.ar      1 <0>         0.0756
     20 C15         7.9368    1.6660    5.0344 C.ar      1 <0>         0.0584
     21 C16         6.8913    0.8382    4.6609 C.ar      1 <0>         0.0567
     22 F1          6.0822    0.3038    5.6015 F         1 <0>        -0.1184
     23 F2          8.1486    1.9395    6.3404 F         1 <0>        -0.1131
     24 F3          9.7790    3.0303    4.4321 F         1 <0>        -0.1192
     25 O2          3.6499   -3.3960    0.1725 O.3       1 <0>        -0.5550
     26 H3         -0.9692    1.8489    0.0082 H         1 <0>         0.1265
     27 H4          1.1372    3.1265   -0.0015 H         1 <0>         0.1266
     28 H5          3.2926    1.9416   -0.0232 H         1 <0>         0.1282
     29 H6         -0.9148   -0.6102   -0.0130 H         1 <0>         0.1220
     30 H7          1.4005   -2.6230    0.9582 H         1 <0>         0.0916
     31 H8          0.8712   -2.7159   -0.7487 H         1 <0>         0.0850
     32 H9          3.8707   -1.7784    1.8910 H         1 <0>         0.4066
     33 H10         5.2806   -0.9467    3.5602 H         1 <0>         0.4147
     34 H11         7.3424    0.8917    1.3079 H         1 <0>         0.1761
     35 H12         9.1913    2.3710    1.9774 H         1 <0>         0.1594
     36 H13         3.2621   -4.2625   -0.0114 H         1 <0>         0.3885
@<TRIPOS>BOND
     1    1    6 ar
     2    1    2 ar
     3    1   26 1
     4    2    3 ar
     5    2   27 1
     6    3    4 ar
     7    3   28 1
     8    4   10 1
     9    4    5 ar
    10    5    6 ar
    11    5    7 1
    12    6   29 1
    13    7    8 1
    14    7   30 1
    15    7   31 1
    16    8    9 1
    17    8   10 1
    18    8   25 1
    19   10   11 1
    20   10   12 1
    21   12   13 am
    22   12   32 1
    23   13   14 2
    24   13   15 am
    25   15   16 1
    26   15   33 1
    27   16   21 ar
    28   16   17 ar
    29   17   18 ar
    30   17   34 1
    31   18   19 ar
    32   18   35 1
    33   19   20 ar
    34   19   24 1
    35   20   21 ar
    36   20   23 1
    37   21   22 1
    38   25   36 1
@<TRIPOS>MOLECULE
ZINC36168851
   43    45     0     0     0
SMALL
USER_CHARGES

@<TRIPOS>ATOM
      1 C1         -0.0187    1.5258    0.0104 C.3       1 <0>        -0.1535
      2 C2          0.0021   -0.0041    0.0020 C.3       1 <0>        -0.1191
      3 C3          0.7182   -0.4975   -1.2568 C.3       1 <0>        -0.1035
      4 H1          0.2447   -0.0646   -2.1380 H         1 <0>         0.0679
      5 C4          2.1882   -0.0746   -1.2071 C.3       1 <0>        -0.1138
      6 C5          2.8978   -0.5392   -2.4810 C.3       1 <0>        -0.1379
      7 C6          2.8369   -2.0676   -2.5661 C.3       1 <0>         0.1431
      8 N1          1.4334   -2.4912   -2.4684 N.pl3     1 <0>        -0.6691
      9 C7          0.6320   -2.0253   -1.3284 C.3       1 <0>         0.1483
     10 C8          0.8698   -3.3228   -3.4435 C.ar      1 <0>         0.1202
     11 C9          0.9203   -4.7000   -3.2949 C.ar      1 <0>        -0.1058
     12 C10         0.3601   -5.5223   -4.2629 C.ar      1 <0>         0.1019
     13 C11        -0.2505   -4.9657   -5.3791 C.ar      1 <0>        -0.0740
     14 C12        -0.3015   -3.5928   -5.5298 C.ar      1 <0>        -0.1616
     15 C13         0.2516   -2.7669   -4.5632 C.ar      1 <0>         0.1977
     16 N2          0.1939   -1.3739   -4.7139 N.pl3     1 <0>        -0.8735
     17 C14        -0.8582   -5.8631   -6.4261 C.3       1 <0>        -0.0782
     18 C15        -0.0316   -7.1439   -6.5441 C.3       1 <0>        -0.1377
     19 C16         0.2195   -7.7196   -5.1765 C.2       1 <0>         0.5195
     20 O1          0.2513   -8.9231   -5.0291 O.2       1 <0>        -0.5348
     21 N3          0.4092   -6.9144   -4.1152 N.am      1 <0>        -0.6602
     22 H2          1.0039    1.9031    0.0027 H         1 <0>         0.0564
     23 H3         -0.5459    1.8868   -0.8726 H         1 <0>         0.0523
     24 H4         -0.5289    1.8773    0.9072 H         1 <0>         0.0539
     25 H5          0.5293   -0.3651    0.8851 H         1 <0>         0.0632
     26 H6         -1.0205   -0.3814    0.0098 H         1 <0>         0.0621
     27 H7          2.2514    1.0109   -1.1316 H         1 <0>         0.0640
     28 H8          2.6672   -0.5274   -0.3389 H         1 <0>         0.0628
     29 H9          2.4039   -0.1065   -3.3510 H         1 <0>         0.0598
     30 H10         3.9389   -0.2174   -2.4555 H         1 <0>         0.0693
     31 H11         3.2527   -2.3974   -3.5182 H         1 <0>         0.0679
     32 H12         3.4077   -2.5023   -1.7455 H         1 <0>         0.0506
     33 H13         1.0227   -2.4570   -0.4070 H         1 <0>         0.0505
     34 H14        -0.4067   -2.3267   -1.4639 H         1 <0>         0.0677
     35 H15         1.3954   -5.1329   -2.4269 H         1 <0>         0.1269
     36 H16        -0.7764   -3.1628   -6.3993 H         1 <0>         0.1278
     37 H17         0.5842   -0.7966   -4.0392 H         1 <0>         0.3993
     38 H18        -0.2362   -0.9877   -5.4928 H         1 <0>         0.3953
     39 H19        -1.8794   -6.1151   -6.1401 H         1 <0>         0.0840
     40 H20        -0.8671   -5.3469   -7.3861 H         1 <0>         0.0909
     41 H21        -0.5742   -7.8706   -7.1487 H         1 <0>         0.1081
     42 H22         0.9214   -6.9170   -7.0220 H         1 <0>         0.1029
     43 H23         0.5811   -7.3005   -3.2422 H         1 <0>         0.4083
@<TRIPOS>BOND
     1    1    2 1
     2    1   22 1
     3    1   23 1
     4    1   24 1
     5    2    3 1
     6    2   25 1
     7    2   26 1
     8    3    4 1
     9    3    9 1
    10    3    5 1
    11    5    6 1
    12    5   27 1
    13    5   28 1
    14    6    7 1
    15    6   29 1
    16    6   30 1
    17    7    8 1
    18    7   31 1
    19    7   32 1
    20    8    9 1
    21    8   10 1
    22    9   33 1
    23    9   34 1
    24   10   15 ar
    25   10   11 ar
    26   11   12 ar
    27   11   35 1
    28   12   21 1
    29   12   13 ar
    30   13   14 ar
    31   13   17 1
    32   14   15 ar
    33   14   36 1
    34   15   16 1
    35   16   37 1
    36   16   38 1
    37   17   18 1
    38   17   39 1
    39   17   40 1
    40   18   19 1
    41   18   41 1
    42   18   42 1
    43   19   20 2
    44   19   21 am
    45   21   43 1
@<TRIPOS>MOLECULE
ZINC04413470
   31    33     0     0     0
SMALL
USER_CHARGES

@<TRIPOS>ATOM
      1 C1         -0.0167    1.3780    0.0096 C.ar      1 <0>        -0.1320
      2 C2          1.1706    2.0866    0.0021 C.ar      1 <0>        -0.0809
      3 C3          2.3773    1.4137   -0.0131 C.ar      1 <0>        -0.1571
      4 C4          2.3974    0.0291   -0.0207 C.ar      1 <0>         0.1163
      5 C5          1.2080   -0.6793   -0.0132 C.ar      1 <0>        -0.1461
      6 C6          0.0021   -0.0041    0.0020 C.ar      1 <0>        -0.0712
      7 C7          1.2281   -2.1862   -0.0220 C.3       1 <0>         0.1698
      8 N1          1.4877   -2.6790    1.3330 N.pl3     1 <0>        -0.7403
      9 C8          1.5529   -4.0552    1.5763 C.ar      1 <0>         0.2320
     10 C9          1.3768   -4.9539    0.5300 C.ar      1 <0>        -0.1828
     11 C10         1.4404   -6.3130    0.7636 C.ar      1 <0>        -0.0528
     12 C11         1.6806   -6.7844    2.0453 C.ar      1 <0>         0.0304
     13 C12         1.8579   -5.8847    3.0982 C.ar      1 <0>         0.1403
     14 C13         1.7987   -4.5203    2.8596 C.ar      1 <0>        -0.1874
     15 N2          2.0781   -6.6444    4.2447 N.am      1 <0>        -0.6436
     16 H1          2.2342   -6.2945    5.1358 H         1 <0>         0.4344
     17 C14         2.0369   -7.9467    3.9062 C.2       1 <0>         0.6836
     18 O1          2.1917   -8.8761    4.6765 O.2       1 <0>        -0.5601
     19 N3          1.7989   -8.0652    2.5864 N.am      1 <0>        -0.6412
     20 H2          1.7227   -8.8984    2.0955 H         1 <0>         0.4341
     21 F1          3.5766   -0.6299   -0.0360 F         1 <0>        -0.1325
     22 H3         -0.9594    1.9048    0.0260 H         1 <0>         0.1331
     23 H4          1.1547    3.1665    0.0077 H         1 <0>         0.1353
     24 H5          3.3046    1.9675   -0.0193 H         1 <0>         0.1379
     25 H6         -0.9259   -0.5565    0.0083 H         1 <0>         0.1357
     26 H7          0.2640   -2.5604   -0.3662 H         1 <0>         0.0765
     27 H8          2.0136   -2.5351   -0.6922 H         1 <0>         0.0735
     28 H9          1.6144   -2.0512    2.0615 H         1 <0>         0.4016
     29 H10         1.1893   -4.5876   -0.4686 H         1 <0>         0.1323
     30 H11         1.3029   -7.0085   -0.0511 H         1 <0>         0.1325
     31 H12         1.9395   -3.8219    3.6712 H         1 <0>         0.1291
@<TRIPOS>BOND
     1    1    6 ar
     2    1    2 ar
     3    1   22 1
     4    2    3 ar
     5    2   23 1
     6    3    4 ar
     7    3   24 1
     8    4    5 ar
     9    4   21 1
    10    5    6 ar
    11    5    7 1
    12    6   25 1
    13    7    8 1
    14    7   26 1
    15    7   27 1
    16    8    9 1
    17    8   28 1
    18    9   14 ar
    19    9   10 ar
    20   10   11 ar
    21   10   29 1
    22   11   12 ar
    23   11   30 1
    24   12   19 1
    25   12   13 ar
    26   13   14 ar
    27   13   15 1
    28   14   31 1
    29   15   16 1
    30   15   17 am
    31   17   18 2
    32   17   19 am
    33   19   20 1
@<TRIPOS>MOLECULE
ZINC44481605
   28    30     0     0     0
SMALL
USER_CHARGES

@<TRIPOS>ATOM
      1 C1         -0.0167    1.3825    0.0096 C.ar      1 <0>        -0.1880
      2 C2          1.1768    2.0879    0.0020 C.ar      1 <0>         0.1596
      3 C3          2.3922    1.4011   -0.0133 C.ar      1 <0>         0.0346
      4 C4          2.4050    0.0145   -0.0216 C.ar      1 <0>        -0.0235
      5 C5          1.2147   -0.6858   -0.0148 C.ar      1 <0>        -0.1620
      6 C6          0.0021   -0.0041    0.0020 C.ar      1 <0>         0.2612
      7 N1         -1.2011   -0.7190    0.0101 N.pl3     1 <0>        -0.7248
      8 C7         -2.4788   -0.0025    0.0267 C.3       1 <0>         0.1233
      9 C8         -3.2100   -0.0780    1.3774 C.3       1 <0>        -0.1562
     10 C9         -4.5114   -0.2410    0.5746 C.3       1 <0>        -0.1414
     11 C10        -3.6466   -0.8118   -0.5616 C.3       1 <0>        -0.1474
     12 Br1         1.2332   -2.5767   -0.0262 Br        1 <0>        -0.0383
     13 N2          3.3998    2.3664   -0.0172 N.am      1 <0>        -0.6388
     14 H1          4.3539    2.1913   -0.0275 H         1 <0>         0.4364
     15 C11         2.8216    3.5821   -0.0049 C.2       1 <0>         0.6864
     16 O1          3.4191    4.6423   -0.0042 O.2       1 <0>        -0.5529
     17 N3          1.4822    3.4472    0.0069 N.am      1 <0>        -0.6420
     18 H2          0.8389    4.1732    0.0167 H         1 <0>         0.4367
     19 H3         -0.9583    1.9112    0.0260 H         1 <0>         0.1402
     20 H4          3.3449   -0.5173   -0.0338 H         1 <0>         0.1424
     21 H5         -1.1889   -1.6889    0.0048 H         1 <0>         0.4066
     22 H6         -2.4024    1.0083   -0.3741 H         1 <0>         0.1093
     23 H7         -2.9479   -0.9563    1.9673 H         1 <0>         0.0859
     24 H8         -3.1639    0.8476    1.9512 H         1 <0>         0.0717
     25 H9         -5.2018   -0.9667    1.0047 H         1 <0>         0.0745
     26 H10        -4.9917    0.7051    0.3247 H         1 <0>         0.0845
     27 H11        -3.9530   -0.4786   -1.5532 H         1 <0>         0.0758
     28 H12        -3.5038   -1.8908   -0.5019 H         1 <0>         0.0861
@<TRIPOS>BOND
     1    1    6 ar
     2    1    2 ar
     3    1   19 1
     4    2   17 1
     5    2    3 ar
     6    3    4 ar
     7    3   13 1
     8    4    5 ar
     9    4   20 1
    10    5    6 ar
    11    5   12 1
    12    6    7 1
    13    7    8 1
    14    7   21 1
    15    8   11 1
    16    8    9 1
    17    8   22 1
    18    9   10 1
    19    9   23 1
    20    9   24 1
    21   10   11 1
    22   10   25 1
    23   10   26 1
    24   11   27 1
    25   11   28 1
    26   13   14 1
    27   13   15 am
    28   15   16 2
    29   15   17 am
    30   17   18 1
@<TRIPOS>MOLECULE
ZINC55266100
   27    29     0     0     0
SMALL
USER_CHARGES

@<TRIPOS>ATOM
      1 C1         -0.0167    1.3818    0.0096 C.ar      1 <0>        -0.1761
      2 C2          1.1663    2.0909    0.0022 C.ar      1 <0>        -0.0079
      3 C3          2.3840    1.4121   -0.0131 C.ar      1 <0>        -0.0970
      4 C4          2.3992    0.0153   -0.0207 C.ar      1 <0>         0.1870
      5 C5          1.2082   -0.6853   -0.0131 C.ar      1 <0>        -0.2081
      6 C6          0.0021   -0.0041    0.0020 C.ar      1 <0>         0.1567
      7 F1         -1.1600   -0.6930    0.0094 F         1 <0>        -0.1255
      8 F2          3.5755   -0.6491   -0.0359 F         1 <0>        -0.0990
      9 C7          3.6573    2.1694   -0.0217 C.ar      1 <0>         0.4282
     10 N1          4.8102    1.5072   -0.0417 N.ar      1 <0>        -0.5564
     11 C8          5.9761    2.1285   -0.0507 C.ar      1 <0>         0.4998
     12 C9          6.0077    3.5517   -0.0386 C.ar      1 <0>        -0.2583
     13 C10         7.1459    4.4532   -0.0453 C.2       1 <0>        -0.1141
     14 C11         6.9330    5.7777   -0.0314 C.2       1 <0>        -0.1692
     15 S1          5.1555    5.9138   -0.0079 S.3       1 <0>         0.1133
     16 C12         4.7465    4.1882   -0.0174 C.ar      1 <0>         0.1561
     17 N2          3.6259    3.4962   -0.0147 N.ar      1 <0>        -0.5140
     18 N3          7.1541    1.4036   -0.0711 N.pl3     1 <0>        -0.5459
     19 N4          7.1157    0.0381   -0.0821 N.3       1 <0>        -0.5943
     20 H1         -0.9599    1.9076    0.0260 H         1 <0>         0.1509
     21 H2          1.1494    3.1708    0.0077 H         1 <0>         0.1589
     22 H3          1.2176   -1.7653   -0.0189 H         1 <0>         0.1553
     23 H4          8.1525    4.0620   -0.0609 H         1 <0>         0.1355
     24 H5          7.6644    6.5724   -0.0335 H         1 <0>         0.1971
     25 H6          8.0074    1.8648   -0.0776 H         1 <0>         0.4157
     26 H7          6.5701   -0.3020   -0.8598 H         1 <0>         0.3516
     27 H8          8.0470   -0.3497   -0.0967 H         1 <0>         0.3596
@<TRIPOS>BOND
     1    1    6 ar
     2    1    2 ar
     3    1   20 1
     4    2    3 ar
     5    2   21 1
     6    3    4 ar
     7    3    9 1
     8    4    5 ar
     9    4    8 1
    10    5    6 ar
    11    5   22 1
    12    6    7 1
    13    9   17 ar
    14    9   10 ar
    15   10   11 ar
    16   11   12 ar
    17   11   18 1
    18   12   16 ar
    19   12   13 1
    20   13   14 2
    21   13   23 1
    22   14   15 1
    23   14   24 1
    24   15   16 1
    25   16   17 ar
    26   18   19 1
    27   18   25 1
    28   19   26 1
    29   19   27 1
@<TRIPOS>MOLECULE
ZINC63202092
   31    33     0     0     0
SMALL
USER_CHARGES

@<TRIPOS>ATOM
      1 C1         -0.0149    1.3627    0.0593 C.ar      1 <0>        -0.1369
      2 C2          1.1725    2.0821    0.0538 C.ar      1 <0>        -0.0768
      3 C3          2.3885    1.4343    0.0302 C.ar      1 <0>        -0.1129
      4 C4          2.4323    0.0449    0.0117 C.ar      1 <0>         0.0741
      5 C5          1.2256   -0.6793    0.0174 C.ar      1 <0>        -0.1485
      6 C6          0.0032   -0.0033    0.0415 C.ar      1 <0>        -0.0558
      7 C7          1.6099   -2.0901   -0.0056 C.2       1 <0>        -0.0945
      8 C8          2.9680   -2.1098   -0.0229 C.2       1 <0>        -0.0382
      9 O1          3.4421   -0.8465   -0.0125 O.3       1 <0>        -0.1875
     10 C9          3.7958   -3.3236   -0.0480 C.2       1 <0>         0.6029
     11 O2          3.2680   -4.4200   -0.0546 O.2       1 <0>        -0.4892
     12 N1          5.1397   -3.2225   -0.0636 N.am      1 <0>        -0.6529
     13 C10         5.9297   -4.3752    0.0293 C.ar      1 <0>         0.0952
     14 C11         5.4253   -5.5170    0.6341 C.ar      1 <0>        -0.1186
     15 C12         6.2081   -6.6548    0.7247 C.ar      1 <0>         0.0639
     16 C13         7.4948   -6.6563    0.2131 C.ar      1 <0>        -0.1150
     17 C14         8.0038   -5.5218   -0.3910 C.ar      1 <0>        -0.1502
     18 C15         7.2236   -4.3797   -0.4912 C.ar      1 <0>         0.1883
     19 N2          7.7359   -3.2316   -1.1081 N.pl3     1 <0>        -0.8762
     20 F1          5.7157   -7.7663    1.3140 F         1 <0>        -0.1392
     21 H1         -0.9592    1.8864    0.0824 H         1 <0>         0.1350
     22 H2          1.1429    3.1616    0.0677 H         1 <0>         0.1402
     23 H3          3.3056    2.0047    0.0257 H         1 <0>         0.1368
     24 H4         -0.9234   -0.5581    0.0459 H         1 <0>         0.1339
     25 H5          0.9480   -2.9435   -0.0084 H         1 <0>         0.1738
     26 H6          5.5597   -2.3515   -0.1391 H         1 <0>         0.4138
     27 H7          4.4223   -5.5180    1.0345 H         1 <0>         0.1579
     28 H8          8.1025   -7.5461    0.2865 H         1 <0>         0.1388
     29 H9          9.0078   -5.5263   -0.7890 H         1 <0>         0.1380
     30 H10         7.1907   -2.4320   -1.1737 H         1 <0>         0.3944
     31 H11         8.6360   -3.2360   -1.4697 H         1 <0>         0.4054
@<TRIPOS>BOND
     1    1    6 ar
     2    1    2 ar
     3    1   21 1
     4    2    3 ar
     5    2   22 1
     6    3    4 ar
     7    3   23 1
     8    4    9 1
     9    4    5 ar
    10    5    6 ar
    11    5    7 1
    12    6   24 1
    13    7    8 2
    14    7   25 1
    15    8    9 1
    16    8   10 1
    17   10   11 2
    18   10   12 am
    19   12   13 1
    20   12   26 1
    21   13   18 ar
    22   13   14 ar
    23   14   15 ar
    24   14   27 1
    25   15   16 ar
    26   15   20 1
    27   16   17 ar
    28   16   28 1
    29   17   18 ar
    30   17   29 1
    31   18   19 1
    32   19   30 1
    33   19   31 1
@<TRIPOS>MOLECULE
ZINC13408890
   71    74     0     0     0
SMALL
USER_CHARGES
(Z,2R)-2-[(5S,8R,9S,10S,13S,14S,17S)-17-hydroxy-10,13-dimethyl-4,5,6,7,8,9,11,12,14,15,16,17-dodecahydro-1H-cyclopenta[a]phenanthren-3-yl]-6-methyl-hept-3-enoic acid
@<TRIPOS>ATOM
      1 C1          2.8187    1.5833   -2.7652 C.3       1 <0>        -0.1460
      2 C2          1.6514    0.8507   -2.1007 C.3       1 <0>        -0.0936
      3 C3          2.0843   -0.5696   -1.7318 C.3       1 <0>        -0.1428
      4 C4          1.2325    1.6012   -0.8349 C.3       1 <0>        -0.0861
      5 C5          0.0066    0.9506   -0.2477 C.2       1 <0>        -0.1960
      6 C6         -1.0543    1.6719    0.0176 C.2       1 <0>        -0.0870
      7 C7         -0.9933    3.1731   -0.0990 C.3       1 <0>        -0.0905
      8 H1          0.0348    3.4812   -0.2892 H         1 <0>         0.0852
      9 C8         -1.4752    3.7967    1.1855 C.2       1 <0>        -0.0523
     10 C9         -0.6540    4.5536    1.8388 C.2       1 <0>        -0.1854
     11 C10        -0.9891    5.2326    3.1317 C.3       1 <0>        -0.0664
     12 C11        -2.5064    5.2553    3.3543 C.3       1 <0>        -0.0420
     13 C12        -3.0539    3.8431    3.1145 C.3       1 <0>        -0.0687
     14 H2         -2.5226    3.1190    3.7323 H         1 <0>         0.0675
     15 C13        -2.8741    3.4976    1.6312 C.3       1 <0>        -0.0789
     16 C14        -4.5507    3.8044    3.4346 C.3       1 <0>        -0.1175
     17 C15        -4.7889    4.2197    4.8859 C.3       1 <0>        -0.1093
     18 C16        -4.2772    5.6483    5.0855 C.3       1 <0>        -0.0746
     19 H3         -4.8027    6.3292    4.4159 H         1 <0>         0.0850
     20 C17        -2.7685    5.6734    4.8036 C.3       1 <0>        -0.0658
     21 H4         -2.2775    4.9525    5.4572 H         1 <0>         0.0614
     22 C18        -2.1713    7.0535    5.0581 C.3       1 <0>        -0.1199
     23 C19        -2.4884    7.5498    6.4786 C.3       1 <0>        -0.1010
     24 C20        -3.9971    7.5541    6.6278 C.3       1 <0>        -0.0571
     25 C21        -4.4767    6.0807    6.5261 C.3       1 <0>        -0.0815
     26 H5         -3.8992    5.4442    7.1966 H         1 <0>         0.0732
     27 C22        -5.9317    6.1961    6.9937 C.3       1 <0>        -0.1126
     28 C23        -5.8347    7.1763    8.1945 C.3       1 <0>        -0.1553
     29 C24        -4.5479    8.0104    7.9748 C.3       1 <0>         0.1104
     30 H6         -3.8265    7.8074    8.7662 H         1 <0>         0.0545
     31 O1         -4.8599    9.4044    7.9357 O.3       1 <0>        -0.5589
     32 C25        -4.6256    8.3815    5.5047 C.3       1 <0>        -0.1341
     33 C26        -3.1737    6.2440    2.3962 C.3       1 <0>        -0.1476
     34 C27        -1.8717    3.6247   -1.2372 C.2       1 <0>         0.4764
     35 O2         -2.4845    2.8110   -1.8870 O.co2     1 <0>        -0.6360
     36 H7          3.6603    1.6280   -2.0740 H         1 <0>         0.0501
     37 H8          3.1171    1.0487   -3.6670 H         1 <0>         0.0498
     38 H9          2.5102    2.5952   -3.0280 H         1 <0>         0.0553
     39 H10         0.8097    0.8060   -2.7919 H         1 <0>         0.0723
     40 H11         1.2527   -1.0915   -1.2584 H         1 <0>         0.0553
     41 H12         2.3827   -1.1042   -2.6336 H         1 <0>         0.0472
     42 H13         2.9259   -0.5249   -1.0406 H         1 <0>         0.0491
     43 H14         1.0090    2.6384   -1.0846 H         1 <0>         0.0746
     44 H15         2.0442    1.5692   -0.1082 H         1 <0>         0.0573
     45 H16         0.0010   -0.1111   -0.0496 H         1 <0>         0.1006
     46 H17        -1.9727    1.1906    0.3198 H         1 <0>         0.1022
     47 H18         0.3315    4.7086    1.4251 H         1 <0>         0.0943
     48 H19        -0.6137    6.2557    3.1110 H         1 <0>         0.0645
     49 H20        -0.5139    4.6921    3.9504 H         1 <0>         0.0603
     50 H21        -3.5738    4.0862    1.0378 H         1 <0>         0.0786
     51 H22        -3.0797    2.4376    1.4822 H         1 <0>         0.0647
     52 H23        -5.0798    4.4887    2.7714 H         1 <0>         0.0650
     53 H24        -4.9269    2.7929    3.2818 H         1 <0>         0.0582
     54 H25        -5.8556    4.1802    5.1062 H         1 <0>         0.0579
     55 H26        -4.2522    3.5437    5.5515 H         1 <0>         0.0575
     56 H27        -2.5810    7.7583    4.3345 H         1 <0>         0.0718
     57 H28        -1.0899    7.0026    4.9314 H         1 <0>         0.0630
     58 H29        -2.0993    8.5590    6.6144 H         1 <0>         0.0614
     59 H30        -2.0447    6.8794    7.2146 H         1 <0>         0.0585
     60 H31        -6.5582    6.6130    6.2052 H         1 <0>         0.0702
     61 H32        -6.3109    5.2266    7.3169 H         1 <0>         0.0641
     62 H33        -5.7639    6.6183    9.1282 H         1 <0>         0.0638
     63 H34        -6.7059    7.8310    8.2154 H         1 <0>         0.0697
     64 H35        -5.2146    9.7515    8.7656 H         1 <0>         0.3710
     65 H36        -5.7115    8.3487    5.5933 H         1 <0>         0.0510
     66 H37        -4.2860    9.4144    5.5806 H         1 <0>         0.0563
     67 H38        -4.3272    7.9708    4.5402 H         1 <0>         0.0659
     68 H39        -4.2505    6.2432    2.5651 H         1 <0>         0.0518
     69 H40        -2.7789    7.2445    2.5735 H         1 <0>         0.0503
     70 H41        -2.9670    5.9489    1.3675 H         1 <0>         0.0741
     71 O3         -1.9734    4.9309   -1.5291 O.co2     1 <0>        -0.7641
@<TRIPOS>BOND
     1    1    2 1
     2    1   36 1
     3    1   37 1
     4    1   38 1
     5    2    3 1
     6    2    4 1
     7    2   39 1
     8    3   40 1
     9    3   41 1
    10    3   42 1
    11    4    5 1
    12    4   43 1
    13    4   44 1
    14    5    6 2
    15    5   45 1
    16    6    7 1
    17    6   46 1
    18    7    8 1
    19    7    9 1
    20    7   34 1
    21    9   15 1
    22    9   10 2
    23   10   11 1
    24   10   47 1
    25   11   12 1
    26   11   48 1
    27   11   49 1
    28   12   20 1
    29   12   13 1
    30   12   33 1
    31   13   14 1
    32   13   15 1
    33   13   16 1
    34   15   50 1
    35   15   51 1
    36   16   17 1
    37   16   52 1
    38   16   53 1
    39   17   18 1
    40   17   54 1
    41   17   55 1
    42   18   19 1
    43   18   25 1
    44   18   20 1
    45   20   21 1
    46   20   22 1
    47   22   23 1
    48   22   56 1
    49   22   57 1
    50   23   24 1
    51   23   58 1
    52   23   59 1
    53   24   29 1
    54   24   25 1
    55   24   32 1
    56   25   26 1
    57   25   27 1
    58   27   28 1
    59   27   60 1
    60   27   61 1
    61   28   29 1
    62   28   62 1
    63   28   63 1
    64   29   30 1
    65   29   31 1
    66   31   64 1
    67   32   65 1
    68   32   66 1
    69   32   67 1
    70   33   68 1
    71   33   69 1
    72   33   70 1
    73   34   35 2
    74   34   71 1
@<TRIPOS>MOLECULE
ZINC04012879
   57    61     0     0     0
SMALL
USER_CHARGES

@<TRIPOS>ATOM
      1 C1         -0.8463   -0.4307    0.0671 C.ar      1 <0>        -0.1273
      2 C2          0.1881    0.4860    0.0119 C.ar      1 <0>        -0.1178
      3 C3          1.4980    0.0516   -0.0114 C.ar      1 <0>        -0.1151
      4 C4          1.7773   -1.3131    0.0208 C.ar      1 <0>        -0.0320
      5 C5          0.7314   -2.2321    0.0763 C.ar      1 <0>        -0.1150
      6 C6         -0.5747   -1.7866    0.0991 C.ar      1 <0>        -0.1177
      7 C7          3.1836   -1.7862   -0.0045 C.ar      1 <0>        -0.0639
      8 C8          4.2297   -0.8671   -0.0547 C.ar      1 <0>        -0.1051
      9 C9          5.5358   -1.3125   -0.0776 C.ar      1 <0>        -0.1090
     10 C10         5.8072   -2.6686   -0.0512 C.ar      1 <0>        -0.0840
     11 C11         4.7727   -3.5854   -0.0019 C.ar      1 <0>        -0.1091
     12 C12         3.4630   -3.1509    0.0276 C.ar      1 <0>        -0.1042
     13 C13         7.2354   -3.1490   -0.0769 C.3       1 <0>         0.1282
     14 H1          7.8777   -2.3585   -0.4650 H         1 <0>         0.0999
     15 C14         7.6763   -3.5138    1.3420 C.3       1 <0>        -0.1099
     16 C15         9.1613   -3.8823    1.3358 C.3       1 <0>         0.0688
     17 H2          9.3439   -4.6421    0.5759 H         1 <0>         0.0639
     18 C16         9.9817   -2.6563    1.0277 C.ar      1 <0>        -0.0410
     19 C17         9.9367   -1.5640    1.8737 C.ar      1 <0>        -0.1071
     20 C18        10.6893   -0.4395    1.5912 C.ar      1 <0>        -0.1310
     21 C19        11.4873   -0.4074    0.4628 C.ar      1 <0>        -0.1420
     22 C20        11.5330   -1.5000   -0.3827 C.ar      1 <0>        -0.1293
     23 C21        10.7837   -2.6262   -0.0978 C.ar      1 <0>        -0.1116
     24 C22         9.5510   -4.4207    2.6883 C.2       1 <0>        -0.4619
     25 C23         8.7543   -4.1885    3.7754 C.2       1 <0>         0.3432
     26 C24         9.1796   -4.7359    5.0731 C.ar      1 <0>        -0.1697
     27 C25         8.4144   -4.5375    6.2243 C.ar      1 <0>        -0.0415
     28 C26         8.8403   -5.0636    7.4236 C.ar      1 <0>        -0.1686
     29 C27        10.0222   -5.7868    7.4907 C.ar      1 <0>        -0.0838
     30 C28        10.7874   -5.9896    6.3616 C.ar      1 <0>        -0.1560
     31 C29        10.3756   -5.4680    5.1419 C.ar      1 <0>         0.1530
     32 O1         11.1123   -5.6584    4.0261 O.3       1 <0>        -0.3007
     33 C30        10.7298   -5.1673    2.8365 C.2       1 <0>         0.5132
     34 O2         11.4284   -5.3715    1.8590 O.2       1 <0>        -0.5335
     35 O3          7.6100   -3.4767    3.6611 O.3       1 <0>        -0.6469
     36 O4          7.3357   -4.3001   -0.9177 O.3       1 <0>        -0.5577
     37 H3         -1.8697   -0.0863    0.0896 H         1 <0>         0.1196
     38 H4         -0.0296    1.5435   -0.0134 H         1 <0>         0.1218
     39 H5          2.3049    0.7681   -0.0548 H         1 <0>         0.1250
     40 H6          0.9423   -3.2910    0.1011 H         1 <0>         0.1250
     41 H7         -1.3862   -2.4980    0.1425 H         1 <0>         0.1218
     42 H8          4.0188    0.1919   -0.0760 H         1 <0>         0.1220
     43 H9          6.3474   -0.6010   -0.1165 H         1 <0>         0.1239
     44 H10         4.9902   -4.6431    0.0182 H         1 <0>         0.1211
     45 H11         2.6561   -3.8674    0.0707 H         1 <0>         0.1219
     46 H12         7.5162   -2.6618    2.0027 H         1 <0>         0.1112
     47 H13         7.0927   -4.3633    1.6968 H         1 <0>         0.0635
     48 H14         9.3133   -1.5891    2.7553 H         1 <0>         0.1231
     49 H15        10.6536    0.4142    2.2518 H         1 <0>         0.1101
     50 H16        12.0747    0.4715    0.2417 H         1 <0>         0.1088
     51 H17        12.1562   -1.4748   -1.2644 H         1 <0>         0.1105
     52 H18        10.8223   -3.4813   -0.7564 H         1 <0>         0.1160
     53 H19         7.4941   -3.9745    6.1744 H         1 <0>         0.1341
     54 H20         8.2515   -4.9121    8.3162 H         1 <0>         0.1211
     55 H21        10.3464   -6.1947    8.4367 H         1 <0>         0.1252
     56 H22        11.7062   -6.5536    6.4256 H         1 <0>         0.1297
     57 H23         6.7893   -5.0449   -0.6317 H         1 <0>         0.3672
@<TRIPOS>BOND
     1    1    6 ar
     2    1    2 ar
     3    1   37 1
     4    2    3 ar
     5    2   38 1
     6    3    4 ar
     7    3   39 1
     8    4    5 ar
     9    4    7 1
    10    5    6 ar
    11    5   40 1
    12    6   41 1
    13    7   12 ar
    14    7    8 ar
    15    8    9 ar
    16    8   42 1
    17    9   10 ar
    18    9   43 1
    19   10   11 ar
    20   10   13 1
    21   11   12 ar
    22   11   44 1
    23   12   45 1
    24   13   14 1
    25   13   15 1
    26   13   36 1
    27   15   16 1
    28   15   46 1
    29   15   47 1
    30   16   17 1
    31   16   18 1
    32   16   24 1
    33   18   23 ar
    34   18   19 ar
    35   19   20 ar
    36   19   48 1
    37   20   21 ar
    38   20   49 1
    39   21   22 ar
    40   21   50 1
    41   22   23 ar
    42   22   51 1
    43   23   52 1
    44   24   33 1
    45   24   25 2
    46   25   26 1
    47   25   35 1
    48   26   31 ar
    49   26   27 ar
    50   27   28 ar
    51   27   53 1
    52   28   29 ar
    53   28   54 1
    54   29   30 ar
    55   29   55 1
    56   30   31 ar
    57   30   56 1
    58   31   32 1
    59   32   33 1
    60   33   34 2
    61   36   57 1
@<TRIPOS>MOLECULE
ZINC35566916
   80    84     0     0     0
SMALL
USER_CHARGES

@<TRIPOS>ATOM
      1 C1         -1.3704   -0.1478    1.8993 C.3       1 <0>        -0.1049
      2 C2         -0.2924   -0.2527    0.8515 C.2       1 <0>        -0.1191
      3 C3          0.7638    0.5194    0.9187 C.2       1 <0>        -0.1710
      4 C4         -0.4295   -1.2468   -0.2750 C.3       1 <0>        -0.0459
      5 H1         -0.8333   -2.1732    0.1428 H         1 <0>         0.0629
      6 C5          0.9354   -1.5098   -0.9321 C.3       1 <0>        -0.1228
      7 C6          0.8046   -1.1167   -2.4187 C.3       1 <0>        -0.0966
      8 C7         -0.4205   -0.1881   -2.4701 C.3       1 <0>        -0.1116
      9 C8         -1.3653   -0.7100   -1.3875 C.3       1 <0>        -0.0399
     10 H2         -1.9945    0.1032   -0.9872 H         1 <0>         0.0861
     11 C9         -2.2159   -1.8839   -1.8623 C.3       1 <0>        -0.0573
     12 H3         -2.9883   -2.0401   -1.0757 H         1 <0>         0.0438
     13 C10        -1.3988   -3.1692   -1.9422 C.3       1 <0>        -0.1294
     14 C11        -2.3381   -4.3356   -2.2304 C.3       1 <0>        -0.1116
     15 C12        -3.0737   -4.1433   -3.5511 C.3       1 <0>        -0.0497
     16 H4         -3.9317   -4.8871   -3.4974 H         1 <0>         0.0423
     17 C13        -2.2468   -4.6444   -4.7270 C.3       1 <0>        -0.0170
     18 C14        -0.7719   -4.3345   -4.5225 C.3       1 <0>        -0.1127
     19 C15         0.0668   -4.8543   -5.6889 C.3       1 <0>        -0.1588
     20 C16        -0.4020   -4.1404   -6.9581 C.3       1 <0>         0.1200
     21 H5          0.2331   -4.4442   -7.7973 H         1 <0>         0.0425
     22 C17        -1.8491   -4.5096   -7.2609 C.3       1 <0>        -0.0411
     23 C18        -2.7849   -4.2565   -6.0894 C.3       1 <0>        -0.0360
     24 H6         -3.6795   -4.9173   -6.2690 H         1 <0>         0.0474
     25 C19        -3.3236   -2.8305   -6.1260 C.3       1 <0>        -0.1272
     26 C20        -4.3393   -2.5758   -5.0240 C.3       1 <0>        -0.1068
     27 C21        -3.7565   -2.8063   -3.6349 C.3       1 <0>        -0.0250
     28 C22        -2.9375   -1.6027   -3.1680 C.3       1 <0>        -0.0171
     29 C23        -1.9734   -1.1691   -4.2565 C.3       1 <0>        -0.1095
     30 C24        -1.0306   -0.0622   -3.8388 C.3       1 <0>        -0.0786
     31 C25        -3.9212   -0.4359   -2.9067 C.3       1 <0>        -0.1521
     32 C26        -4.9861   -2.8703   -2.6806 C.3       1 <0>        -0.1547
     33 C27        -1.9229   -5.9806   -7.7006 C.3       1 <0>        -0.1481
     34 C28        -2.2713   -3.6814   -8.4897 C.3       1 <0>        -0.1411
     35 O1         -0.2878   -2.7271   -6.7812 O.3       1 <0>        -0.5523
     36 C29        -2.3797   -6.1970   -4.6213 C.3       1 <0>        -0.1616
     37 C30         0.0454    1.2045   -2.0798 C.2       1 <0>         0.5034
     38 O2          1.0266    1.6914   -2.6151 O.co2     1 <0>        -0.7090
     39 O3         -0.5620    1.8349   -1.2312 O.co2     1 <0>        -0.6859
     40 H7         -2.0635    0.6489    1.6290 H         1 <0>         0.0635
     41 H8         -1.9097   -1.0929    1.9616 H         1 <0>         0.0477
     42 H9         -0.9177    0.0766    2.8651 H         1 <0>         0.0498
     43 H10         0.9133    1.1562    1.7781 H         1 <0>         0.0768
     44 H11         1.4850    0.5191    0.1148 H         1 <0>         0.1030
     45 H12         1.7046   -0.9080   -0.4507 H         1 <0>         0.0679
     46 H13         1.1932   -2.5675   -0.8436 H         1 <0>         0.0460
     47 H14         1.7006   -0.5750   -2.7393 H         1 <0>         0.0626
     48 H15         0.6665   -1.9932   -3.0448 H         1 <0>         0.0477
     49 H16        -0.6428   -3.0870   -2.7072 H         1 <0>         0.0844
     50 H17        -0.9063   -3.3613   -0.9805 H         1 <0>         0.0588
     51 H18        -1.7666   -5.2622   -2.2377 H         1 <0>         0.0565
     52 H19        -3.0747   -4.4002   -1.4155 H         1 <0>         0.0505
     53 H20        -0.5767   -3.2709   -4.4021 H         1 <0>         0.0929
     54 H21        -0.4214   -4.8432   -3.6117 H         1 <0>         0.0577
     55 H22         1.1200   -4.6125   -5.5155 H         1 <0>         0.0580
     56 H23        -0.0179   -5.9283   -5.7895 H         1 <0>         0.0695
     57 H24        -2.5171   -2.1148   -6.0962 H         1 <0>         0.1004
     58 H25        -3.8860   -2.6580   -7.0630 H         1 <0>         0.0444
     59 H26        -4.7406   -1.5646   -5.1132 H         1 <0>         0.0627
     60 H27        -5.1836   -3.2734   -5.1574 H         1 <0>         0.0446
     61 H28        -1.4467   -2.0079   -4.6937 H         1 <0>         0.0898
     62 H29        -2.5990   -0.7479   -5.0809 H         1 <0>         0.0397
     63 H30        -1.5690    0.8927   -3.8826 H         1 <0>         0.0410
     64 H31        -0.2145    0.0024   -4.5759 H         1 <0>         0.0498
     65 H32        -3.3584    0.4763   -2.7084 H         1 <0>         0.0629
     66 H33        -4.5527   -0.2900   -3.7830 H         1 <0>         0.0457
     67 H34        -4.5449   -0.6726   -2.0447 H         1 <0>         0.0501
     68 H35        -4.6421   -2.9302   -1.6481 H         1 <0>         0.0550
     69 H36        -5.5933   -1.9743   -2.8098 H         1 <0>         0.0582
     70 H37        -5.5834   -3.7511   -2.9163 H         1 <0>         0.0410
     71 H38        -1.4134   -6.6052   -6.9668 H         1 <0>         0.0611
     72 H39        -2.9667   -6.2856   -7.7753 H         1 <0>         0.0576
     73 H40        -1.4408   -6.0942   -8.6716 H         1 <0>         0.0524
     74 H41        -1.6247   -3.9262   -9.3324 H         1 <0>         0.0464
     75 H42        -3.3052   -3.9126   -8.7459 H         1 <0>         0.0470
     76 H43        -2.1825   -2.6196   -8.2601 H         1 <0>         0.0705
     77 H44         0.6128   -2.4248   -6.6007 H         1 <0>         0.3753
     78 H45        -3.4074   -6.4892   -4.8371 H         1 <0>         0.0474
     79 H46        -1.7093   -6.6687   -5.3398 H         1 <0>         0.0574
     80 H47        -2.1150   -6.5166   -3.6134 H         1 <0>         0.0526
@<TRIPOS>BOND
     1    1    2 1
     2    1   40 1
     3    1   41 1
     4    1   42 1
     5    2    3 2
     6    2    4 1
     7    3   43 1
     8    3   44 1
     9    4    5 1
    10    4    9 1
    11    4    6 1
    12    6    7 1
    13    6   45 1
    14    6   46 1
    15    7    8 1
    16    7   47 1
    17    7   48 1
    18    8   30 1
    19    8    9 1
    20    8   37 1
    21    9   10 1
    22    9   11 1
    23   11   12 1
    24   11   28 1
    25   11   13 1
    26   13   14 1
    27   13   49 1
    28   13   50 1
    29   14   15 1
    30   14   51 1
    31   14   52 1
    32   15   16 1
    33   15   27 1
    34   15   17 1
    35   17   23 1
    36   17   18 1
    37   17   36 1
    38   18   19 1
    39   18   53 1
    40   18   54 1
    41   19   20 1
    42   19   55 1
    43   19   56 1
    44   20   21 1
    45   20   22 1
    46   20   35 1
    47   22   23 1
    48   22   33 1
    49   22   34 1
    50   23   24 1
    51   23   25 1
    52   25   26 1
    53   25   57 1
    54   25   58 1
    55   26   27 1
    56   26   59 1
    57   26   60 1
    58   27   28 1
    59   27   32 1
    60   28   29 1
    61   28   31 1
    62   29   30 1
    63   29   61 1
    64   29   62 1
    65   30   63 1
    66   30   64 1
    67   31   65 1
    68   31   66 1
    69   31   67 1
    70   32   68 1
    71   32   69 1
    72   32   70 1
    73   33   71 1
    74   33   72 1
    75   33   73 1
    76   34   74 1
    77   34   75 1
    78   34   76 1
    79   35   77 1
    80   36   78 1
    81   36   79 1
    82   36   80 1
    83   37   38 2
    84   37   39 1
@<TRIPOS>MOLECULE
ZINC39887515
   47    50     0     0     0
SMALL
USER_CHARGES

@<TRIPOS>ATOM
      1 C1         -0.6467    1.7726   -0.2792 C.3       1 <0>        -0.1109
      2 C2         -0.6007    0.2703   -0.1691 C.ar      1 <0>        -0.0809
      3 C3         -0.6350   -0.3317    1.0756 C.ar      1 <0>        -0.1259
      4 C4         -0.5930   -1.7079    1.1800 C.ar      1 <0>        -0.0668
      5 C5         -0.5167   -2.4880    0.0330 C.ar      1 <0>         0.1521
      6 C6         -0.4828   -1.8803   -1.2153 C.ar      1 <0>        -0.0710
      7 C7         -0.5300   -0.5033   -1.3129 C.ar      1 <0>        -0.1223
      8 C8         -0.4000   -2.7225   -2.4622 C.3       1 <0>        -0.1122
      9 N1         -0.4735   -3.8818    0.1352 N.pl3     1 <0>        -0.5698
     10 C9         -1.7092   -4.6713    0.1013 C.3       1 <0>         0.4682
     11 H1         -2.5290   -4.0464   -0.2529 H         1 <0>         0.1243
     12 N2         -1.5424   -5.8127   -0.8003 N.am      1 <0>        -0.7347
     13 C10        -0.3329   -6.3835   -0.9682 C.2       1 <0>         0.6004
     14 O1         -0.2105   -7.3587   -1.6872 O.2       1 <0>        -0.5597
     15 C11         0.8335   -5.8238   -0.2813 C.2       1 <0>        -0.3235
     16 C12         0.7266   -4.5361    0.2633 C.2       1 <0>         0.4529
     17 S1          2.0897   -3.7857    1.0901 S.3       1 <0>        -0.7767
     18 C13         2.0508   -6.5701   -0.1731 C.1       1 <0>         0.3370
     19 N3          3.0165   -7.1622   -0.0873 N.1       1 <0>        -0.4956
     20 C14        -2.0229   -5.1710    1.4880 C.2       1 <0>        -0.0263
     21 C15        -2.7612   -6.2587    1.7826 C.2       1 <0>        -0.1856
     22 C16        -2.8028   -6.3612    3.1877 C.2       1 <0>        -0.1845
     23 C17        -2.0798   -5.3194    3.6778 C.2       1 <0>         0.0222
     24 O2         -1.6080   -4.6092    2.6353 O.3       1 <0>        -0.1410
     25 C18        -1.8469   -5.0216    5.1066 C.ar      1 <0>        -0.0016
     26 C19        -2.3866   -5.8499    6.0921 C.ar      1 <0>        -0.0890
     27 C20        -2.1653   -5.5670    7.4239 C.ar      1 <0>        -0.1079
     28 C21        -1.4100   -4.4637    7.7840 C.ar      1 <0>        -0.0337
     29 C22        -0.8720   -3.6383    6.8109 C.ar      1 <0>        -0.1044
     30 C23        -1.0815   -3.9141    5.4758 C.ar      1 <0>        -0.0840
     31 Cl1        -1.1368   -4.1135    9.4622 Cl        1 <0>        -0.0726
     32 H2         -1.6841    2.1004   -0.3459 H         1 <0>         0.0666
     33 H3         -0.1815    2.2158    0.6013 H         1 <0>         0.0643
     34 H4         -0.1078    2.0881   -1.1726 H         1 <0>         0.0634
     35 H5         -0.6944    0.2753    1.9669 H         1 <0>         0.1199
     36 H6         -0.6191   -2.1774    2.1523 H         1 <0>         0.1258
     37 H7         -0.5079   -0.0302   -2.2835 H         1 <0>         0.1204
     38 H8         -1.4014   -3.0386   -2.7544 H         1 <0>         0.0663
     39 H9          0.0455   -2.1375   -3.2669 H         1 <0>         0.0638
     40 H10         0.2158   -3.6005   -2.2674 H         1 <0>         0.0717
     41 H11        -2.3093   -6.1616   -1.2809 H         1 <0>         0.4057
     42 H12        -3.2326   -6.9256    1.0759 H         1 <0>         0.1514
     43 H13        -3.3112   -7.1203    3.7636 H         1 <0>         0.1502
     44 H14        -2.9765   -6.7102    5.8125 H         1 <0>         0.1373
     45 H15        -2.5824   -6.2070    8.1873 H         1 <0>         0.1377
     46 H16        -0.2837   -2.7793    7.0979 H         1 <0>         0.1378
     47 H17        -0.6576   -3.2722    4.7177 H         1 <0>         0.1411
@<TRIPOS>BOND
     1    1    2 1
     2    1   32 1
     3    1   33 1
     4    1   34 1
     5    2    7 ar
     6    2    3 ar
     7    3    4 ar
     8    3   35 1
     9    4    5 ar
    10    4   36 1
    11    5    6 ar
    12    5    9 1
    13    6    7 ar
    14    6    8 1
    15    7   37 1
    16    8   38 1
    17    8   39 1
    18    8   40 1
    19    9   16 1
    20    9   10 1
    21   10   11 1
    22   10   12 1
    23   10   20 1
    24   12   13 am
    25   12   41 1
    26   13   14 2
    27   13   15 1
    28   15   16 2
    29   15   18 1
    30   16   17 1
    31   18   19 3
    32   20   24 1
    33   20   21 2
    34   21   22 1
    35   21   42 1
    36   22   23 2
    37   22   43 1
    38   23   24 1
    39   23   25 1
    40   25   30 ar
    41   25   26 ar
    42   26   27 ar
    43   26   44 1
    44   27   28 ar
    45   27   45 1
    46   28   29 ar
    47   28   31 1
    48   29   30 ar
    49   29   46 1
    50   30   47 1
@<TRIPOS>MOLECULE
ZINC09608875
   59    63     0     0     0
SMALL
USER_CHARGES

@<TRIPOS>ATOM
      1 C1         -0.0184    1.5028    0.0103 C.3       1 <0>        -0.1252
      2 C2          0.0021   -0.0041    0.0020 C.ar      1 <0>        -0.0642
      3 C3          0.0057   -0.6888   -1.1991 C.ar      1 <0>        -0.1239
      4 C4          0.0245   -2.0707   -1.2067 C.ar      1 <0>        -0.1163
      5 C5          0.0400   -2.7685   -0.0132 C.ar      1 <0>        -0.1284
      6 C6          0.0373   -2.0840    1.1875 C.ar      1 <0>        -0.0969
      7 C7          0.0229   -0.7015    1.1951 C.ar      1 <0>        -0.0689
      8 C8          0.0252    0.0449    2.5043 C.3       1 <0>        -0.0595
      9 S1         -1.6839    0.3212    3.0458 S.3       1 <0>        -0.0391
     10 C9         -1.5132    1.1923    4.5680 C.ar      1 <0>         0.3562
     11 N1         -2.6032    1.5457    5.2352 N.ar      1 <0>        -0.6107
     12 C10        -2.5062    2.2024    6.3864 C.ar      1 <0>         0.4042
     13 C11        -1.2493    2.5151    6.8882 C.ar      1 <0>        -0.3165
     14 C12        -0.1292    2.1313    6.1608 C.ar      1 <0>         0.4681
     15 O1          1.1163    2.4194    6.6113 O.3       1 <0>        -0.6726
     16 N2         -0.2987    1.4721    5.0184 N.ar      1 <0>        -0.6166
     17 C13        -1.1036    3.2454    8.1889 C.3       1 <0>         0.1043
     18 H1         -0.3234    4.0000    8.0886 H         1 <0>         0.0834
     19 C14        -2.3922    3.9185    8.5893 C.2       1 <0>        -0.2934
     20 C15        -3.5713    3.5650    8.0353 C.2       1 <0>         0.2371
     21 N3         -3.6382    2.5800    7.0883 N.pl3     1 <0>        -0.6288
     22 C16        -4.8555    4.2485    8.4392 C.3       1 <0>        -0.0862
     23 C17        -4.7628    4.6946    9.8999 C.3       1 <0>        -0.0526
     24 C18        -3.5633    5.6376   10.0424 C.3       1 <0>        -0.1571
     25 C19        -2.3258    4.9294    9.5646 C.2       1 <0>         0.4039
     26 O2         -1.2465    5.2366   10.0311 O.2       1 <0>        -0.4771
     27 C20        -6.0452    5.4285   10.2969 C.3       1 <0>        -0.1390
     28 C21        -4.5676    3.4730   10.8003 C.3       1 <0>        -0.1526
     29 C22        -0.7064    2.2655    9.2627 C.ar      1 <0>        -0.0398
     30 C23        -1.5289    1.1946    9.5590 C.ar      1 <0>        -0.0852
     31 C24        -1.1654    0.2951   10.5432 C.ar      1 <0>        -0.1614
     32 C25         0.0230    0.4668   11.2326 C.ar      1 <0>         0.0753
     33 C26         0.8460    1.5398   10.9349 C.ar      1 <0>        -0.1567
     34 C27         0.4830    2.4350    9.9467 C.ar      1 <0>        -0.0580
     35 F1          0.3791   -0.4116   12.1952 F         1 <0>        -0.1512
     36 H2          1.0042    1.8801    0.0026 H         1 <0>         0.0717
     37 H3         -0.5455    1.8639   -0.8728 H         1 <0>         0.0664
     38 H4         -0.5286    1.8543    0.9071 H         1 <0>         0.0780
     39 H5         -0.0064   -0.1437   -2.1314 H         1 <0>         0.1211
     40 H6          0.0266   -2.6056   -2.1449 H         1 <0>         0.1193
     41 H7          0.0540   -3.8484   -0.0191 H         1 <0>         0.1210
     42 H8          0.0491   -2.6290    2.1199 H         1 <0>         0.1253
     43 H9          0.5542   -0.5412    3.2558 H         1 <0>         0.0995
     44 H10         0.5249    1.0049    2.3743 H         1 <0>         0.1022
     45 H11        -4.4851    2.1431    6.9070 H         1 <0>         0.4091
     46 H12        -5.0187    5.1189    7.8037 H         1 <0>         0.0970
     47 H13        -5.6879    3.5543    8.3238 H         1 <0>         0.0863
     48 H14        -3.7280    6.5309    9.4400 H         1 <0>         0.0954
     49 H15        -3.4422    5.9183   11.0886 H         1 <0>         0.0917
     50 H16        -6.8982    4.7607   10.1763 H         1 <0>         0.0591
     51 H17        -5.9756    5.7446   11.3378 H         1 <0>         0.0607
     52 H18        -6.1755    6.3030    9.6596 H         1 <0>         0.0582
     53 H19        -3.6483    2.9585   10.5204 H         1 <0>         0.0676
     54 H20        -4.5020    3.7945   11.8397 H         1 <0>         0.0588
     55 H21        -5.4134    2.7957   10.6821 H         1 <0>         0.0578
     56 H22        -2.4560    1.0611    9.0214 H         1 <0>         0.1176
     57 H23        -1.8083   -0.5412   10.7748 H         1 <0>         0.1241
     58 H24         1.7731    1.6748   11.4722 H         1 <0>         0.1272
     59 H25         1.1269    3.2695    9.7112 H         1 <0>         0.1303
@<TRIPOS>BOND
     1    1    2 1
     2    1   36 1
     3    1   37 1
     4    1   38 1
     5    2    7 ar
     6    2    3 ar
     7    3    4 ar
     8    3   39 1
     9    4    5 ar
    10    4   40 1
    11    5    6 ar
    12    5   41 1
    13    6    7 ar
    14    6   42 1
    15    7    8 1
    16    8    9 1
    17    8   43 1
    18    8   44 1
    19    9   10 1
    20   10   16 ar
    21   10   11 ar
    22   11   12 ar
    23   12   21 1
    24   12   13 ar
    25   13   14 ar
    26   13   17 1
    27   14   15 1
    28   14   16 ar
    29   17   18 1
    30   17   19 1
    31   17   29 1
    32   19   25 1
    33   19   20 2
    34   20   21 1
    35   20   22 1
    36   21   45 1
    37   22   23 1
    38   22   46 1
    39   22   47 1
    40   23   24 1
    41   23   27 1
    42   23   28 1
    43   24   25 1
    44   24   48 1
    45   24   49 1
    46   25   26 2
    47   27   50 1
    48   27   51 1
    49   27   52 1
    50   28   53 1
    51   28   54 1
    52   28   55 1
    53   29   34 ar
    54   29   30 ar
    55   30   31 ar
    56   30   56 1
    57   31   32 ar
    58   31   57 1
    59   32   33 ar
    60   32   35 1
    61   33   34 ar
    62   33   58 1
    63   34   59 1
@<TRIPOS>MOLECULE
ZINC12778941
   43    45     0     0     0
SMALL
USER_CHARGES
4-[[(1R)-1-methyl-2-(2-methyl-1H-indol-3-yl)-2-oxo-ethyl]sulfanylmethyl]benzoic acid
@<TRIPOS>ATOM
      1 C1          2.2990    3.4225    2.3877 C.3       1 <0>        -0.1073
      2 C2          2.2809    2.9564    0.9548 C.2       1 <0>         0.1417
      3 C3          1.6850    3.6276   -0.0916 C.2       1 <0>        -0.2601
      4 C4          1.9192    2.8050   -1.2947 C.ar      1 <0>        -0.0615
      5 C5          1.5753    2.9354   -2.6371 C.ar      1 <0>        -0.0788
      6 C6          1.9555    1.9630   -3.5363 C.ar      1 <0>        -0.1336
      7 C7          2.6780    0.8587   -3.1082 C.ar      1 <0>        -0.1028
      8 C8          3.0244    0.7173   -1.7823 C.ar      1 <0>        -0.1218
      9 C9          2.6492    1.6884   -0.8590 C.ar      1 <0>         0.0867
     10 N1          2.8446    1.8207    0.5009 N.pl3     1 <0>        -0.5733
     11 H1          3.3226    1.1831    1.0539 H         1 <0>         0.4187
     12 C10         0.9880    4.8599   -0.0256 C.2       1 <0>         0.4611
     13 O1         -0.2210    4.8684    0.0840 O.2       1 <0>        -0.4184
     14 C11         1.7477    6.1598   -0.0914 C.3       1 <0>        -0.1114
     15 H2          2.6371    6.0489    0.3520 H         1 <0>         0.0960
     16 C12         1.9532    6.5568   -1.5547 C.3       1 <0>        -0.1409
     17 S1          0.8051    7.4549    0.7599 S.3       1 <0>        -0.2017
     18 C13         1.9077    8.8949    0.7251 C.3       1 <0>        -0.0428
     19 C14         1.2368   10.0579    1.4095 C.ar      1 <0>        -0.0894
     20 C15         0.4571   10.9331    0.6742 C.ar      1 <0>        -0.1162
     21 C16        -0.1638   11.9970    1.2952 C.ar      1 <0>        -0.0789
     22 C17         0.0046   12.1956    2.6670 C.ar      1 <0>        -0.1035
     23 C18         0.7971   11.3116    3.4019 C.ar      1 <0>        -0.0883
     24 C19         1.4079   10.2489    2.7692 C.ar      1 <0>        -0.1168
     25 C20        -0.6530   13.3357    3.3379 C.2       1 <0>         0.4875
     26 O2         -0.5050   13.5057    4.5315 O.co2     1 <0>        -0.6307
     27 H3          3.1288    4.1139    2.5344 H         1 <0>         0.0901
     28 H4          1.3606    3.9272    2.6175 H         1 <0>         0.0925
     29 H5          2.4207    2.5636    3.0477 H         1 <0>         0.0779
     30 H6          1.0171    3.7968   -2.9730 H         1 <0>         0.1235
     31 H7          1.6904    2.0611   -4.5786 H         1 <0>         0.1265
     32 H8          2.9714    0.1024   -3.8212 H         1 <0>         0.1275
     33 H9          3.5863   -0.1467   -1.4597 H         1 <0>         0.1219
     34 H10         2.5027    7.4970   -1.6023 H         1 <0>         0.0700
     35 H11         2.5196    5.7786   -2.0662 H         1 <0>         0.0686
     36 H12         0.9837    6.6777   -2.0379 H         1 <0>         0.0742
     37 H13         2.8358    8.6544    1.2436 H         1 <0>         0.0849
     38 H14         2.1273    9.1594   -0.3092 H         1 <0>         0.0873
     39 H15         0.3310   10.7807   -0.3875 H         1 <0>         0.1178
     40 H16        -0.7757   12.6769    0.7210 H         1 <0>         0.1324
     41 H17         0.9312   11.4593    4.4633 H         1 <0>         0.1282
     42 H18         2.0209    9.5641    3.3365 H         1 <0>         0.1167
     43 O3         -1.4169   14.1868    2.6259 O.co2     1 <0>        -0.7531
@<TRIPOS>BOND
     1    1    2 1
     2    1   27 1
     3    1   28 1
     4    1   29 1
     5    2   10 1
     6    2    3 2
     7    3    4 1
     8    3   12 1
     9    4    9 ar
    10    4    5 ar
    11    5    6 ar
    12    5   30 1
    13    6    7 ar
    14    6   31 1
    15    7    8 ar
    16    7   32 1
    17    8    9 ar
    18    8   33 1
    19    9   10 1
    20   10   11 1
    21   12   13 2
    22   12   14 1
    23   14   15 1
    24   14   16 1
    25   14   17 1
    26   16   34 1
    27   16   35 1
    28   16   36 1
    29   17   18 1
    30   18   19 1
    31   18   37 1
    32   18   38 1
    33   19   24 ar
    34   19   20 ar
    35   20   21 ar
    36   20   39 1
    37   21   22 ar
    38   21   40 1
    39   22   23 ar
    40   22   25 1
    41   23   24 ar
    42   23   41 1
    43   24   42 1
    44   25   26 2
    45   25   43 1
@<TRIPOS>MOLECULE
ZINC22058294
   59    64     0     0     0
SMALL
USER_CHARGES
3-(hydroxy-dimethyl-oxo-BLAHyl)propanoic acid
@<TRIPOS>ATOM
      1 C1         -2.3193    4.5002   -0.1964 C.3       1 <0>        -0.1507
      2 C2         -0.8493    4.3305   -0.5854 C.3       1 <0>        -0.0332
      3 C3         -0.4482    5.5891   -1.3077 C.3       1 <0>        -0.1144
      4 C4          0.5787    5.3348   -2.4103 C.3       1 <0>        -0.1692
      5 C5          0.0209    4.2536   -3.3179 C.2       1 <0>         0.3961
      6 O1         -0.0817    4.4068   -4.5170 O.2       1 <0>        -0.4664
      7 C6         -0.3869    3.0076   -2.6502 C.2       1 <0>        -0.2631
      8 C7         -0.7644    3.0630   -1.3771 C.2       1 <0>        -0.0035
      9 C8         -1.1318    1.7774   -0.6534 C.3       1 <0>        -0.1663
     10 H1         -1.8702    1.4606   -1.4047 H         1 <0>         0.1319
     11 C9          0.0205    1.1171    0.1198 C.3       1 <0>        -0.1244
     12 C10        -1.1005    1.8176    0.8753 C.3       1 <0>        -0.1158
     13 H2         -1.7940    1.5262    1.6779 H         1 <0>         0.1423
     14 C11        -0.8376    3.1266    1.5942 C.3       1 <0>        -0.0966
     15 H3         -1.8197    3.5696    1.8160 H         1 <0>         0.1218
     16 C12        -0.0947    4.1359    0.7278 C.3       1 <0>        -0.0609
     17 H4          0.9188    3.7681    0.5096 H         1 <0>         0.0563
     18 C13        -0.0252    5.4689    1.4820 C.3       1 <0>        -0.1285
     19 C14         0.8034    5.2564    2.7489 C.3       1 <0>        -0.0956
     20 C15         0.2009    4.1923    3.6339 C.3       1 <0>        -0.0380
     21 C16        -0.0822    2.8691    2.9005 C.3       1 <0>        -0.0592
     22 H5          0.8435    2.3254    2.6607 H         1 <0>         0.0782
     23 C17        -1.0746    2.1486    3.8528 C.3       1 <0>        -0.1821
     24 H6         -0.5305    1.2060    4.0125 H         1 <0>         0.1187
     25 C18        -2.5672    2.4186    3.6448 C.3       1 <0>        -0.1509
     26 C19        -1.7838    3.2534    4.6581 C.3       1 <0>        -0.1483
     27 H7         -2.0258    3.5247    5.6963 H         1 <0>         0.1394
     28 C20        -1.1768    4.5958    4.1912 C.3       1 <0>         0.1578
     29 C21        -1.0202    5.5560    5.3721 C.3       1 <0>        -0.1206
     30 C22        -2.3936    5.8412    5.9830 C.3       1 <0>        -0.1585
     31 C23        -2.2394    6.7870    7.1461 C.2       1 <0>         0.4576
     32 O2         -1.1434    7.1914    7.4547 O.co2     1 <0>        -0.6410
     33 O3         -3.3195    7.1802    7.8393 O.co2     1 <0>        -0.7774
     34 O4         -1.9818    5.1828    3.1668 O.3       1 <0>        -0.5682
     35 C24         1.1419    3.9233    4.8099 C.3       1 <0>        -0.1480
     36 H8         -2.4390    5.4225    0.3909 H         1 <0>         0.0733
     37 H9         -2.6412    3.6377    0.4057 H         1 <0>         0.0707
     38 H10        -2.9345    4.5624   -1.1062 H         1 <0>         0.0435
     39 H11        -1.3355    6.0439   -1.7723 H         1 <0>         0.0681
     40 H12        -0.0054    6.2974   -0.5920 H         1 <0>         0.0966
     41 H13         0.7452    6.2626   -2.9773 H         1 <0>         0.0889
     42 H14         1.5265    5.0053   -1.9597 H         1 <0>         0.0963
     43 H15        -0.3840    2.0445   -3.1816 H         1 <0>         0.1350
     44 H16         0.0505    0.0426   -0.1138 H         1 <0>         0.0948
     45 H17         0.9730    1.5828   -0.1732 H         1 <0>         0.0940
     46 H18         0.4490    6.2278    0.8423 H         1 <0>         0.0549
     47 H19        -1.0423    5.7948    1.7451 H         1 <0>         0.1155
     48 H20         1.8213    4.9436    2.4731 H         1 <0>         0.0495
     49 H21         0.8503    6.1964    3.3183 H         1 <0>         0.0636
     50 H22        -2.7461    2.7012    2.5969 H         1 <0>         0.1027
     51 H23        -3.1407    1.5106    3.8827 H         1 <0>         0.0913
     52 H24        -0.3685    5.0997    6.1318 H         1 <0>         0.0743
     53 H25        -0.5718    6.4975    5.0222 H         1 <0>         0.0696
     54 H26        -3.0452    6.2975    5.2233 H         1 <0>         0.0627
     55 H27        -2.8419    4.8997    6.3330 H         1 <0>         0.0645
     56 H28        -3.0003    5.5282    3.3978 H         1 <0>         0.3917
     57 H29         0.7067    3.1482    5.4578 H         1 <0>         0.0608
     58 H30         1.2804    4.8490    5.3878 H         1 <0>         0.0674
     59 H31         2.1151    3.5794    4.4295 H         1 <0>         0.0506
@<TRIPOS>BOND
     1    1    2 1
     2    1   36 1
     3    1   37 1
     4    1   38 1
     5    2    8 1
     6    2   16 1
     7    2    3 1
     8    3    4 1
     9    3   39 1
    10    3   40 1
    11    4    5 1
    12    4   41 1
    13    4   42 1
    14    5    6 2
    15    5    7 1
    16    7    8 2
    17    7   43 1
    18    8    9 1
    19    9   10 1
    20    9   12 1
    21    9   11 1
    22   11   12 1
    23   11   44 1
    24   11   45 1
    25   12   13 1
    26   12   14 1
    27   14   15 1
    28   14   21 1
    29   14   16 1
    30   16   17 1
    31   16   18 1
    32   18   19 1
    33   18   46 1
    34   18   47 1
    35   19   20 1
    36   19   48 1
    37   19   49 1
    38   20   28 1
    39   20   21 1
    40   20   35 1
    41   21   22 1
    42   21   23 1
    43   23   24 1
    44   23   26 1
    45   23   25 1
    46   25   26 1
    47   25   50 1
    48   25   51 1
    49   26   27 1
    50   26   28 1
    51   28   29 1
    52   28   34 1
    53   29   30 1
    54   29   52 1
    55   29   53 1
    56   30   31 1
    57   30   54 1
    58   30   55 1
    59   31   32 2
    60   31   33 1
    61   34   56 1
    62   35   57 1
    63   35   58 1
    64   35   59 1
@<TRIPOS>MOLECULE
ZINC39984763
   40    43     0     0     0
SMALL
USER_CHARGES

@<TRIPOS>ATOM
      1 C1         -1.5741    1.6487    0.3813 C.ar      1 <0>        -0.1750
      2 C2         -0.5570    2.5846    0.3313 C.ar      1 <0>        -0.0787
      3 C3          0.7509    2.1802    0.1722 C.ar      1 <0>        -0.1870
      4 C4          1.0597    0.8226    0.0607 C.ar      1 <0>         0.1953
      5 C5          0.0332   -0.1071    0.1126 C.ar      1 <0>        -0.1488
      6 C6         -1.2765    0.3033    0.2718 C.ar      1 <0>        -0.0523
      7 C7          0.6290   -1.4898   -0.0292 C.3       1 <0>        -0.0368
      8 H1          0.4216   -2.0862    0.8593 H         1 <0>         0.1345
      9 C8          2.1404   -1.2460   -0.1709 C.3       1 <0>         0.1287
     10 N1          2.3026    0.2088   -0.1031 N.pl3     1 <0>        -0.7466
     11 C9          0.0864   -2.1727   -1.2581 C.2       1 <0>        -0.0363
     12 C10        -0.5858   -3.3231   -1.1421 C.2       1 <0>        -0.1938
     13 C11        -0.9271   -4.1102    0.0749 C.2       1 <0>         0.5344
     14 O1         -0.5956   -3.7480    1.1911 O.2       1 <0>        -0.5290
     15 N2         -1.6060   -5.2169   -0.1230 N.2       1 <0>        -0.7115
     16 C12        -1.9724   -5.6212   -1.3296 C.2       1 <0>         0.4640
     17 S1         -1.3347   -4.3452   -2.4043 S.3       1 <0>        -0.1306
     18 N3         -2.6760   -6.7450   -1.6709 N.2       1 <0>        -0.5734
     19 C13        -3.2742   -7.5243   -0.6761 C.ar      1 <0>         0.2152
     20 C14        -3.5953   -6.9592    0.5518 C.ar      1 <0>        -0.1603
     21 C15        -4.1860   -7.7316    1.5322 C.ar      1 <0>        -0.0765
     22 C16        -4.4577   -9.0665    1.2930 C.ar      1 <0>        -0.1763
     23 C17        -4.1394   -9.6320    0.0721 C.ar      1 <0>        -0.0631
     24 C18        -3.5540   -8.8634   -0.9151 C.ar      1 <0>        -0.2185
     25 C19        -3.2136   -9.4789   -2.2479 C.3       1 <0>         0.5226
     26 F1         -3.5874  -10.8270   -2.2481 F         1 <0>        -0.1952
     27 F2         -3.9011   -8.8042   -3.2624 F         1 <0>        -0.1750
     28 F3         -1.8361   -9.3769   -2.4705 F         1 <0>        -0.1778
     29 H2         -2.5977    1.9681    0.5102 H         1 <0>         0.1192
     30 H3         -0.7886    3.6360    0.4168 H         1 <0>         0.1189
     31 H4          1.5404    2.9161    0.1332 H         1 <0>         0.1134
     32 H5         -2.0696   -0.4288    0.3107 H         1 <0>         0.1190
     33 H6          2.6790   -1.7251    0.6467 H         1 <0>         0.0710
     34 H7          2.4958   -1.6218   -1.1304 H         1 <0>         0.0681
     35 H8          3.1500    0.6769   -0.1638 H         1 <0>         0.4093
     36 H9          0.2404   -1.7332   -2.2325 H         1 <0>         0.1213
     37 H10        -3.3828   -5.9171    0.7394 H         1 <0>         0.1467
     38 H11        -4.4359   -7.2930    2.4869 H         1 <0>         0.1167
     39 H12        -4.9191   -9.6686    2.0617 H         1 <0>         0.1183
     40 H13        -4.3528  -10.6746   -0.1115 H         1 <0>         0.1257
@<TRIPOS>BOND
     1    1    6 ar
     2    1    2 ar
     3    1   29 1
     4    2    3 ar
     5    2   30 1
     6    3    4 ar
     7    3   31 1
     8    4   10 1
     9    4    5 ar
    10    5    6 ar
    11    5    7 1
    12    6   32 1
    13    7    8 1
    14    7    9 1
    15    7   11 1
    16    9   10 1
    17    9   33 1
    18    9   34 1
    19   10   35 1
    20   11   12 2
    21   11   36 1
    22   12   17 1
    23   12   13 1
    24   13   14 2
    25   13   15 1
    26   15   16 2
    27   16   17 1
    28   16   18 1
    29   18   19 1
    30   19   24 ar
    31   19   20 ar
    32   20   21 ar
    33   20   37 1
    34   21   22 ar
    35   21   38 1
    36   22   23 ar
    37   22   39 1
    38   23   24 ar
    39   23   40 1
    40   24   25 1
    41   25   26 1
    42   25   27 1
    43   25   28 1
@<TRIPOS>MOLECULE
ZINC41790279
   35    36     0     0     0
SMALL
USER_CHARGES

@<TRIPOS>ATOM
      1 C1         -1.8950   -2.0050    1.8754 C.3       1 <0>        -0.1248
      2 C2         -0.7808   -1.7068    0.9055 C.ar      1 <0>        -0.0620
      3 C3         -0.6203   -2.4875   -0.2242 C.ar      1 <0>        -0.1285
      4 C4          0.4015   -2.2141   -1.1138 C.ar      1 <0>        -0.1241
      5 C5          1.2629   -1.1595   -0.8742 C.ar      1 <0>        -0.1351
      6 C6          1.1019   -0.3784    0.2547 C.ar      1 <0>        -0.1069
      7 C7          0.0771   -0.6493    1.1423 C.ar      1 <0>        -0.0582
      8 C8         -0.1017    0.2055    2.3704 C.3       1 <0>         0.1341
      9 C9          0.9219    1.3425    2.3539 C.3       1 <0>        -0.1542
     10 C10        -1.4937    0.7829    2.3823 C.2       1 <0>         0.5016
     11 O1         -2.2866    0.4447    3.2444 O.co2     1 <0>        -0.6642
     12 O2         -1.8269    1.5882    1.5297 O.co2     1 <0>        -0.6863
     13 N1          0.0975   -0.6134    3.5687 N.pl3     1 <0>        -0.7051
     14 C11        -0.0441   -0.0430    4.8361 C.ar      1 <0>         0.2831
     15 C12        -0.4563    1.2774    4.9631 C.ar      1 <0>        -0.1500
     16 C13        -0.5957    1.8381    6.2174 C.ar      1 <0>        -0.0681
     17 C14        -0.3256    1.0867    7.3467 C.ar      1 <0>        -0.1910
     18 C15         0.0853   -0.2278    7.2243 C.ar      1 <0>        -0.0500
     19 C16         0.2214   -0.7969    5.9726 C.ar      1 <0>        -0.1888
     20 I1          0.8356   -2.7913    5.7884 I         1 <0>        -0.0759
     21 H1         -2.7571   -1.3804    1.6416 H         1 <0>         0.0793
     22 H2         -2.1749   -3.0554    1.7955 H         1 <0>         0.0481
     23 H3         -1.5587   -1.7949    2.8908 H         1 <0>         0.0905
     24 H4         -1.2931   -3.3114   -0.4113 H         1 <0>         0.1169
     25 H5          0.5274   -2.8244   -1.9959 H         1 <0>         0.1152
     26 H6          2.0618   -0.9462   -1.5689 H         1 <0>         0.1163
     27 H7          1.7749    0.4452    0.4420 H         1 <0>         0.1245
     28 H8          0.7211    1.9999    1.5079 H         1 <0>         0.0723
     29 H9          0.8487    1.9109    3.2811 H         1 <0>         0.0643
     30 H10         1.9252    0.9268    2.2608 H         1 <0>         0.0482
     31 H11         0.3276   -1.5518    3.4821 H         1 <0>         0.3928
     32 H12        -0.6671    1.8650    4.0818 H         1 <0>         0.1371
     33 H13        -0.9158    2.8648    6.3167 H         1 <0>         0.1173
     34 H14        -0.4355    1.5278    8.3263 H         1 <0>         0.1153
     35 H15         0.2961   -0.8116    8.1081 H         1 <0>         0.1161
@<TRIPOS>BOND
     1    1    2 1
     2    1   21 1
     3    1   22 1
     4    1   23 1
     5    2    7 ar
     6    2    3 ar
     7    3    4 ar
     8    3   24 1
     9    4    5 ar
    10    4   25 1
    11    5    6 ar
    12    5   26 1
    13    6    7 ar
    14    6   27 1
    15    7    8 1
    16    8    9 1
    17    8   10 1
    18    8   13 1
    19    9   28 1
    20    9   29 1
    21    9   30 1
    22   10   11 2
    23   10   12 1
    24   13   14 1
    25   13   31 1
    26   14   19 ar
    27   14   15 ar
    28   15   16 ar
    29   15   32 1
    30   16   17 ar
    31   16   33 1
    32   17   18 ar
    33   17   34 1
    34   18   19 ar
    35   18   35 1
    36   19   20 1
@<TRIPOS>MOLECULE
ZINC58929482
   48    52     0     0     0
SMALL
USER_CHARGES

@<TRIPOS>ATOM
      1 C1         -0.0167    1.3790    0.0096 C.ar      1 <0>        -0.1334
      2 C2          1.1686    2.0921    0.0021 C.ar      1 <0>        -0.1155
      3 C3          2.3774    1.4262   -0.0130 C.ar      1 <0>        -0.1229
      4 C4          2.4023    0.0328   -0.0207 C.ar      1 <0>        -0.0182
      5 C5          1.2050   -0.6804   -0.0131 C.ar      1 <0>        -0.1221
      6 C6          0.0021   -0.0041    0.0020 C.ar      1 <0>        -0.1148
      7 C7          3.6985   -0.6885   -0.0375 C.ar      1 <0>        -0.1167
      8 C8          4.8956    0.0262   -0.0398 C.ar      1 <0>        -0.0603
      9 C9          6.0942   -0.6511   -0.0617 C.ar      1 <0>        -0.1959
     10 C10         6.1142   -2.0448   -0.0793 C.ar      1 <0>         0.2386
     11 C11         4.9287   -2.7598   -0.0657 C.ar      1 <0>        -0.1400
     12 C12         3.7219   -2.0797   -0.0452 C.ar      1 <0>        -0.0523
     13 C13         4.8975   -4.2625   -0.0475 C.3       1 <0>        -0.0089
     14 H1          4.5251   -4.6448   -0.9979 H         1 <0>         0.0867
     15 C14         3.9867   -4.6946    1.0908 C.2       1 <0>        -0.1520
     16 C15         4.6903   -5.0748    2.1252 C.2       1 <0>        -0.1654
     17 C16         6.1737   -4.9686    1.8391 C.3       1 <0>        -0.0929
     18 C17         6.2507   -4.8867    0.2820 C.3       1 <0>        -0.0891
     19 H2          6.2833   -5.8972   -0.1253 H         1 <0>         0.0925
     20 C18         7.4561   -4.1413   -0.2078 C.3       1 <0>         0.2171
     21 H3          8.3149   -4.4421    0.3922 H         1 <0>         0.0838
     22 N1          7.3399   -2.6990   -0.1172 N.pl3     1 <0>        -0.7252
     23 C19         7.7136   -4.5384   -1.6385 C.ar      1 <0>        -0.1262
     24 C20         6.9750   -3.9618   -2.6568 C.ar      1 <0>        -0.1144
     25 C21         7.2049   -4.3207   -3.9685 C.ar      1 <0>        -0.0873
     26 C22         8.1866   -5.2687   -4.2680 C.ar      1 <0>        -0.1276
     27 C23         8.9288   -5.8463   -3.2347 C.ar      1 <0>        -0.0871
     28 C24         8.6914   -5.4739   -1.9281 C.ar      1 <0>        -0.1298
     29 C25         8.4381   -5.6582   -5.6686 C.2       1 <0>         0.5177
     30 O1          7.7866   -5.1510   -6.5707 O.co2     1 <0>        -0.6868
     31 O2          9.2981   -6.4882   -5.9275 O.co2     1 <0>        -0.6878
     32 H4         -0.9603    1.9042    0.0260 H         1 <0>         0.1181
     33 H5          1.1481    3.1719    0.0078 H         1 <0>         0.1199
     34 H6          3.3022    1.9839   -0.0192 H         1 <0>         0.1227
     35 H7          1.2185   -1.7603   -0.0194 H         1 <0>         0.1226
     36 H8         -0.9264   -0.5557    0.0083 H         1 <0>         0.1202
     37 H9          4.8828    1.1060   -0.0248 H         1 <0>         0.1217
     38 H10         7.0231   -0.1001   -0.0656 H         1 <0>         0.1216
     39 H11         2.7941   -2.6324   -0.0398 H         1 <0>         0.1208
     40 H12         2.9075   -4.6884    1.0505 H         1 <0>         0.1245
     41 H13         4.2699   -5.4183    3.0588 H         1 <0>         0.1231
     42 H14         6.5870   -4.0667    2.2906 H         1 <0>         0.0753
     43 H15         6.6976   -5.8535    2.2004 H         1 <0>         0.0715
     44 H16         8.1508   -2.1668   -0.1056 H         1 <0>         0.4010
     45 H17         6.2165   -3.2292   -2.4238 H         1 <0>         0.1113
     46 H18         6.6272   -3.8704   -4.7621 H         1 <0>         0.1236
     47 H19         9.6892   -6.5797   -3.4589 H         1 <0>         0.1255
     48 H20         9.2673   -5.9163   -1.1287 H         1 <0>         0.1128
@<TRIPOS>BOND
     1    1    6 ar
     2    1    2 ar
     3    1   32 1
     4    2    3 ar
     5    2   33 1
     6    3    4 ar
     7    3   34 1
     8    4    5 ar
     9    4    7 1
    10    5    6 ar
    11    5   35 1
    12    6   36 1
    13    7   12 ar
    14    7    8 ar
    15    8    9 ar
    16    8   37 1
    17    9   10 ar
    18    9   38 1
    19   10   22 1
    20   10   11 ar
    21   11   12 ar
    22   11   13 1
    23   12   39 1
    24   13   14 1
    25   13   18 1
    26   13   15 1
    27   15   16 2
    28   15   40 1
    29   16   17 1
    30   16   41 1
    31   17   18 1
    32   17   42 1
    33   17   43 1
    34   18   19 1
    35   18   20 1
    36   20   21 1
    37   20   22 1
    38   20   23 1
    39   22   44 1
    40   23   28 ar
    41   23   24 ar
    42   24   25 ar
    43   24   45 1
    44   25   26 ar
    45   25   46 1
    46   26   27 ar
    47   26   29 1
    48   27   28 ar
    49   27   47 1
    50   28   48 1
    51   29   30 2
    52   29   31 1
@<TRIPOS>MOLECULE
ZINC04051983
   46    49     0     0     0
SMALL
USER_CHARGES
(4-chlorophenyl)-dimethyl-BLAHone
@<TRIPOS>ATOM
      1 C1         -4.9181    3.9727   -2.7354 C.3       1 <0>        -0.1200
      2 C2         -4.2788    4.8232   -1.6682 C.ar      1 <0>        -0.0705
      3 C3         -2.9713    5.2520   -1.8219 C.ar      1 <0>        -0.1223
      4 C4         -2.3925    6.0368   -0.8380 C.ar      1 <0>         0.1692
      5 C5         -3.1328    6.4177    0.2715 C.ar      1 <0>         0.1116
      6 C6         -4.4315    5.9700    0.4350 C.ar      1 <0>        -0.1108
      7 C7         -5.0017    5.1708   -0.5421 C.ar      1 <0>        -0.0879
      8 C8         -6.4161    4.6775   -0.3768 C.3       1 <0>        -0.1171
      9 N1         -2.5396    7.3137    1.1534 N.pl3     1 <0>        -0.6856
     10 C9         -1.4422    7.0515    1.9079 C.2       1 <0>         0.2613
     11 C10        -0.3208    6.4703    1.4498 C.2       1 <0>        -0.2999
     12 C11        -0.0794    6.0034    0.0347 C.3       1 <0>         0.2766
     13 H1          0.8998    6.3623   -0.2823 H         1 <0>         0.0967
     14 N2         -1.0652    6.4537   -0.9246 N.pl3     1 <0>        -0.7663
     15 C12        -0.0590    4.4966    0.0264 C.ar      1 <0>        -0.0821
     16 C13         1.1041    3.8231   -0.2974 C.ar      1 <0>        -0.0781
     17 C14         1.1234    2.4411   -0.3052 C.ar      1 <0>        -0.1147
     18 C15        -0.0213    1.7317    0.0115 C.ar      1 <0>        -0.0334
     19 C16        -1.1864    2.4063    0.3304 C.ar      1 <0>        -0.1148
     20 C17        -1.2032    3.7883    0.3430 C.ar      1 <0>        -0.0930
     21 Cl1         0.0022   -0.0041    0.0020 Cl        1 <0>        -0.0753
     22 C18         0.7704    6.2443    2.3216 C.2       1 <0>         0.3975
     23 O1          1.7801    5.7340    1.8772 O.2       1 <0>        -0.4732
     24 C19         0.7253    6.6126    3.7743 C.3       1 <0>        -0.1597
     25 C20        -0.7320    6.5504    4.2475 C.3       1 <0>        -0.1113
     26 C21        -1.5473    7.4870    3.3595 C.3       1 <0>        -0.1126
     27 H2         -4.7384    2.9200   -2.5172 H         1 <0>         0.0725
     28 H3         -5.9914    4.1614   -2.7559 H         1 <0>         0.0722
     29 H4         -4.4869    4.2215   -3.7051 H         1 <0>         0.0661
     30 H5         -2.4075    4.9768   -2.7010 H         1 <0>         0.1257
     31 H6         -4.9950    6.2405    1.3157 H         1 <0>         0.1271
     32 H7         -6.4085    3.7208    0.1454 H         1 <0>         0.0711
     33 H8         -6.9885    5.4026    0.2016 H         1 <0>         0.0652
     34 H9         -6.8742    4.5523   -1.3579 H         1 <0>         0.0722
     35 H10        -2.9401    8.1933    1.2354 H         1 <0>         0.4057
     36 H11        -0.7984    7.0544   -1.6379 H         1 <0>         0.4000
     37 H12         1.9977    4.3770   -0.5447 H         1 <0>         0.1312
     38 H13         2.0321    1.9151   -0.5583 H         1 <0>         0.1313
     39 H14        -2.0817    1.8531    0.5731 H         1 <0>         0.1275
     40 H15        -2.1115    4.3150    0.5959 H         1 <0>         0.1264
     41 H16         1.2840    5.9700    4.2986 H         1 <0>         0.0852
     42 H17         1.1108    7.6233    3.9079 H         1 <0>         0.0996
     43 H18        -1.1076    5.5314    4.1540 H         1 <0>         0.0722
     44 H19        -0.7973    6.8742    5.2863 H         1 <0>         0.0842
     45 H20        -1.1675    8.5037    3.4606 H         1 <0>         0.0920
     46 H21        -2.5917    7.4602    3.6705 H         1 <0>         0.0880
@<TRIPOS>BOND
     1    1    2 1
     2    1   27 1
     3    1   28 1
     4    1   29 1
     5    2    7 ar
     6    2    3 ar
     7    3    4 ar
     8    3   30 1
     9    4   14 1
    10    4    5 ar
    11    5    6 ar
    12    5    9 1
    13    6    7 ar
    14    6   31 1
    15    7    8 1
    16    8   32 1
    17    8   33 1
    18    8   34 1
    19    9   10 1
    20    9   35 1
    21   10   26 1
    22   10   11 2
    23   11   12 1
    24   11   22 1
    25   12   13 1
    26   12   14 1
    27   12   15 1
    28   14   36 1
    29   15   20 ar
    30   15   16 ar
    31   16   17 ar
    32   16   37 1
    33   17   18 ar
    34   17   38 1
    35   18   19 ar
    36   18   21 1
    37   19   20 ar
    38   19   39 1
    39   20   40 1
    40   22   23 2
    41   22   24 1
    42   24   25 1
    43   24   41 1
    44   24   42 1
    45   25   26 1
    46   25   43 1
    47   25   44 1
    48   26   45 1
    49   26   46 1
@<TRIPOS>MOLECULE
ZINC00756502
   46    49     0     0     0
SMALL
USER_CHARGES
(6S)-6-(4-chlorophenyl)-9,9-dimethyl-6,8,10,11-tetrahydro-5H-benzo[c][1,5]benzodiazepin-7-one
@<TRIPOS>ATOM
      1 C1         -0.7861    5.1734   -4.1653 C.3       1 <0>        -0.1516
      2 C2         -0.2482    6.6048   -4.2167 C.3       1 <0>        -0.0514
      3 C3         -1.1621    7.5304   -3.4158 C.3       1 <0>        -0.1043
      4 C4         -1.2220    7.0759   -1.9675 C.2       1 <0>         0.2745
      5 C5         -0.1630    6.4881   -1.3923 C.2       1 <0>        -0.3072
      6 C6         -0.0794    6.0034    0.0347 C.3       1 <0>         0.2848
      7 H1          0.8136    6.4556    0.4908 H         1 <0>         0.0932
      8 N1         -1.1679    6.4423    0.8818 N.pl3     1 <0>        -0.7813
      9 C7         -2.4765    6.0273    0.6403 C.ar      1 <0>         0.1718
     10 C8         -3.1628    5.2311    1.5431 C.ar      1 <0>        -0.1283
     11 C9         -4.4438    4.8051    1.2372 C.ar      1 <0>        -0.1078
     12 C10        -5.0347    5.1666    0.0401 C.ar      1 <0>        -0.1240
     13 C11        -4.3580    5.9764   -0.8564 C.ar      1 <0>        -0.1167
     14 C12        -3.0864    6.4221   -0.5410 C.ar      1 <0>         0.1142
     15 N2         -2.3979    7.3288   -1.3386 N.pl3     1 <0>        -0.6989
     16 C13        -0.0590    4.4966    0.0264 C.ar      1 <0>        -0.0757
     17 C14        -1.1649    3.7930   -0.4129 C.ar      1 <0>        -0.0936
     18 C15        -1.1467    2.4110   -0.4208 C.ar      1 <0>        -0.1151
     19 C16        -0.0213    1.7318    0.0107 C.ar      1 <0>        -0.0337
     20 C17         1.0833    2.4364    0.4552 C.ar      1 <0>        -0.1149
     21 C18         1.0659    3.8184    0.4576 C.ar      1 <0>        -0.0777
     22 Cl1         0.0023   -0.0041    0.0010 Cl        1 <0>        -0.0756
     23 C19         1.0251    6.2723   -2.1362 C.2       1 <0>         0.4022
     24 O1          1.9779    5.7556   -1.5862 O.2       1 <0>        -0.4752
     25 C20         1.1456    6.6593   -3.5797 C.3       1 <0>        -0.1614
     26 C21        -0.1734    7.0798   -5.6692 C.3       1 <0>        -0.1431
     27 H2         -1.7856    5.1407   -4.6234 H         1 <0>         0.0593
     28 H3         -0.8518    4.8438   -3.1179 H         1 <0>         0.0599
     29 H4         -0.1075    4.5067   -4.7176 H         1 <0>         0.0607
     30 H5         -0.7705    8.5575   -3.4568 H         1 <0>         0.0909
     31 H6         -2.1748    7.5067   -3.8446 H         1 <0>         0.0885
     32 H7         -0.9683    7.1130    1.7305 H         1 <0>         0.4179
     33 H8         -2.7024    4.9457    2.4774 H         1 <0>         0.1239
     34 H9         -4.9851    4.1863    1.9375 H         1 <0>         0.1233
     35 H10        -6.0281    4.8153   -0.1967 H         1 <0>         0.1250
     36 H11        -4.8182    6.2581   -1.7919 H         1 <0>         0.1252
     37 H12        -2.8762    8.3140   -1.4420 H         1 <0>         0.4263
     38 H13        -2.0434    4.3233   -0.7496 H         1 <0>         0.1265
     39 H14        -2.0108    1.8614   -0.7640 H         1 <0>         0.1277
     40 H15         1.9603    1.9066    0.7967 H         1 <0>         0.1310
     41 H16         1.9296    4.3686    0.8007 H         1 <0>         0.1310
     42 H17         1.8147    5.9591   -4.1013 H         1 <0>         0.0954
     43 H18         1.5468    7.6802   -3.6622 H         1 <0>         0.1001
     44 H19         0.2139    8.1089   -5.6989 H         1 <0>         0.0602
     45 H20        -1.1783    7.0531   -6.1159 H         1 <0>         0.0607
     46 H21         0.4980    6.4188   -6.2370 H         1 <0>         0.0630
@<TRIPOS>BOND
     1    1    2 1
     2    1   27 1
     3    1   28 1
     4    1   29 1
     5    2   25 1
     6    2    3 1
     7    2   26 1
     8    3    4 1
     9    3   30 1
    10    3   31 1
    11    4   15 1
    12    4    5 2
    13    5    6 1
    14    5   23 1
    15    6    7 1
    16    6    8 1
    17    6   16 1
    18    8    9 1
    19    8   32 1
    20    9   14 ar
    21    9   10 ar
    22   10   11 ar
    23   10   33 1
    24   11   12 ar
    25   11   34 1
    26   12   13 ar
    27   12   35 1
    28   13   14 ar
    29   13   36 1
    30   14   15 1
    31   15   37 1
    32   16   21 ar
    33   16   17 ar
    34   17   18 ar
    35   17   38 1
    36   18   19 ar
    37   18   39 1
    38   19   20 ar
    39   19   22 1
    40   20   21 ar
    41   20   40 1
    42   21   41 1
    43   23   24 2
    44   23   25 1
    45   25   42 1
    46   25   43 1
    47   26   44 1
    48   26   45 1
    49   26   46 1
@<TRIPOS>MOLECULE
ZINC35686398
   47    50     0     0     0
SMALL
NO_CHARGES

@<TRIPOS>ATOM
      1 C1         -0.0127    1.0858    0.0080 C.3       1 <0>        -0.0783
      2 C2         -0.7416    1.5850   -1.2129 C.2       1 <0>        -0.2298
      3 C3         -0.9773    3.0296   -1.5832 C.3       1 <0>         0.1909
      4 N1         -1.7250    3.0144   -2.8468 N.pl3     1 <0>        -0.5722
      5 C4         -1.9147    1.6947   -3.1928 C.cat     1 <0>         0.4260
      6 C5         -1.2943    0.8269   -2.1719 C.2       1 <0>        -0.0837
      7 C6         -1.2862   -0.6506   -2.2005 C.2       1 <0>         0.1967
      8 N2         -0.7662   -1.4899   -1.3313 N.2       1 <0>        -0.5188
      9 C7         -0.8336   -2.8265   -1.4855 C.ar      1 <0>         0.1088
     10 C8         -0.3197   -3.8324   -0.6323 C.ar      1 <0>        -0.0918
     11 C9         -0.4733   -5.1487   -0.9358 C.ar      1 <0>        -0.0996
     12 C10        -1.1350   -5.5597   -2.0848 C.ar      1 <0>        -0.1331
     13 C11        -1.6527   -4.6096   -2.9451 C.ar      1 <0>        -0.0575
     14 C12        -1.5028   -3.2770   -2.6483 C.ar      1 <0>        -0.1521
     15 S1         -1.9871   -1.7524   -3.4209 S.3       1 <0>        -0.1107
     16 N3         -2.5401    1.2774   -4.2568 N.pl3     1 <0>        -0.7733
     17 C13        -2.1838    4.1846   -3.5993 C.3       1 <0>         0.1568
     18 C14        -3.7083    4.1459   -3.7230 C.3       1 <0>        -0.1362
     19 C15        -4.1874    5.3681   -4.5088 C.3       1 <0>        -0.1175
     20 C16        -3.5619    5.3540   -5.9051 C.3       1 <0>        -0.1260
     21 C17        -2.0374    5.3927   -5.7813 C.3       1 <0>        -0.1174
     22 C18        -1.5583    4.1705   -4.9955 C.3       1 <0>        -0.1364
     23 C19        -1.7986    3.7239   -0.4949 C.3       1 <0>        -0.1567
     24 H1          0.0021   -0.0041    0.0020 H         1 <0>         0.0926
     25 H2          1.0099    1.4631    0.0003 H         1 <0>         0.0514
     26 H3         -0.5229    1.4373    0.9048 H         1 <0>         0.0520
     27 H4          0.2012   -3.5507    0.2708 H         1 <0>         0.1263
     28 H5         -0.0698   -5.8936   -0.2660 H         1 <0>         0.1270
     29 H6         -1.2441   -6.6115   -2.3045 H         1 <0>         0.1313
     30 H7         -2.1700   -4.9126   -3.8435 H         1 <0>         0.1252
     31 H8         -2.9169    1.9178   -4.8803 H         1 <0>         0.4100
     32 H9         -0.0246    3.5421   -1.7170 H         1 <0>         0.0845
     33 H10        -1.8847    5.0930   -3.0763 H         1 <0>         0.1078
     34 H11        -4.0074    3.2375   -4.2459 H         1 <0>         0.0612
     35 H12        -4.1539    4.1559   -2.7283 H         1 <0>         0.0768
     36 H13        -5.2735    5.3405   -4.5970 H         1 <0>         0.0716
     37 H14        -3.8883    6.2764   -3.9859 H         1 <0>         0.0695
     38 H15        -3.8610    4.4456   -6.4280 H         1 <0>         0.0627
     39 H16        -3.9033    6.2247   -6.4649 H         1 <0>         0.0702
     40 H17        -1.5918    5.3827   -6.7760 H         1 <0>         0.0718
     41 H18        -1.7383    6.3011   -5.2584 H         1 <0>         0.0696
     42 H19        -0.4722    4.1981   -4.9073 H         1 <0>         0.0767
     43 H20        -1.8574    3.2622   -5.5184 H         1 <0>         0.0614
     44 H21        -1.2473    3.7032    0.4452 H         1 <0>         0.0758
     45 H22        -1.9847    4.7581   -0.7843 H         1 <0>         0.0542
     46 H23        -2.7490    3.2048   -0.3702 H         1 <0>         0.0613
     47 H24        -2.6290    0.3263   -4.4254 H         1 <0>         0.4210
@<TRIPOS>BOND
     1    1   24 1
     2    1   25 1
     3    1   26 1
     4    1    2 1
     5    2    6 2
     6    2    3 1
     7    3   23 1
     8    3   32 1
     9    3    4 1
    10    4    5 1
    11    4   17 1
    12    5   16 2
    13    5    6 1
    14    6    7 1
    15    7   15 1
    16    7    8 2
    17    8    9 1
    18    9   14 ar
    19    9   10 ar
    20   10   11 ar
    21   10   27 1
    22   11   12 ar
    23   11   28 1
    24   12   13 ar
    25   12   29 1
    26   13   14 ar
    27   13   30 1
    28   14   15 1
    29   16   31 1
    30   16   47 1
    31   17   22 1
    32   17   18 1
    33   17   33 1
    34   18   19 1
    35   18   34 1
    36   18   35 1
    37   19   20 1
    38   19   36 1
    39   19   37 1
    40   20   21 1
    41   20   38 1
    42   20   39 1
    43   21   22 1
    44   21   40 1
    45   21   41 1
    46   22   42 1
    47   22   43 1
    48   23   44 1
    49   23   45 1
    50   23   46 1
@<TRIPOS>MOLECULE
ZINC43409147
   36    38     0     0     0
SMALL
USER_CHARGES

@<TRIPOS>ATOM
      1 C1         -0.2017    1.4935    0.0137 C.3       1 <0>        -0.1153
      2 C2         -0.1476   -0.0125    0.0050 C.ar      1 <0>        -0.0857
      3 C3          1.0306   -0.6626    0.3231 C.ar      1 <0>        -0.1088
      4 C4          1.0827   -2.0430    0.3164 C.ar      1 <0>        -0.1087
      5 C5         -0.0485   -2.7772   -0.0099 C.ar      1 <0>         0.0745
      6 C6         -1.2295   -2.1224   -0.3287 C.ar      1 <0>        -0.1082
      7 C7         -1.2777   -0.7419   -0.3154 C.ar      1 <0>        -0.1092
      8 O1          0.0003   -4.1353   -0.0177 O.3       1 <0>        -0.1693
      9 C8          0.1469   -4.7731    1.1682 C.ar      1 <0>         0.3876
     10 C9          0.3112   -6.1672    1.1948 C.ar      1 <0>        -0.1919
     11 C10         0.4603   -6.8003    2.4335 C.ar      1 <0>         0.0022
     12 C11         0.4394   -6.0241    3.5803 C.ar      1 <0>        -0.1952
     13 C12         0.2735   -4.6545    3.4764 C.ar      1 <0>         0.2056
     14 N1          0.1398   -4.0795    2.2912 N.ar      1 <0>        -0.5247
     15 C13         0.2857   -4.0362    4.8600 C.3       1 <0>        -0.0787
     16 C14         0.0356   -5.2096    5.8305 C.3       1 <0>        -0.1192
     17 C15         0.5727   -6.4183    5.0348 C.3       1 <0>        -0.0732
     18 C16         0.3259   -6.9469   -0.0553 C.2       1 <0>         0.3898
     19 S1          0.3068   -6.1424   -1.5663 S.2       1 <0>        -0.5012
     20 N2          0.3543   -8.2936   -0.0092 N.pl3     1 <0>        -0.7713
     21 H1         -0.4858    1.8411    1.0069 H         1 <0>         0.0712
     22 H2          0.7787    1.8937   -0.2448 H         1 <0>         0.0671
     23 H3         -0.9371    1.8348   -0.7149 H         1 <0>         0.0674
     24 H4          1.9109   -0.0907    0.5767 H         1 <0>         0.1256
     25 H5          2.0033   -2.5503    0.5645 H         1 <0>         0.1208
     26 H6         -2.1113   -2.6916   -0.5834 H         1 <0>         0.1282
     27 H7         -2.1979   -0.2318   -0.5591 H         1 <0>         0.1279
     28 H8          0.5886   -7.8710    2.4941 H         1 <0>         0.1416
     29 H9          1.2545   -3.5790    5.0613 H         1 <0>         0.0998
     30 H10        -0.5088   -3.2954    4.9500 H         1 <0>         0.0936
     31 H11         0.5969   -5.0741    6.7550 H         1 <0>         0.0882
     32 H12        -1.0289   -5.3228    6.0354 H         1 <0>         0.0790
     33 H13        -0.0264   -7.3047    5.2430 H         1 <0>         0.0808
     34 H14         1.6183   -6.6004    5.2832 H         1 <0>         0.0858
     35 H15         0.4393   -8.7480    0.8436 H         1 <0>         0.3991
     36 H16         0.2899   -8.8084   -0.8288 H         1 <0>         0.4247
@<TRIPOS>BOND
     1    1    2 1
     2    1   21 1
     3    1   22 1
     4    1   23 1
     5    2    7 ar
     6    2    3 ar
     7    3    4 ar
     8    3   24 1
     9    4    5 ar
    10    4   25 1
    11    5    6 ar
    12    5    8 1
    13    6    7 ar
    14    6   26 1
    15    7   27 1
    16    8    9 1
    17    9   14 ar
    18    9   10 ar
    19   10   11 ar
    20   10   18 1
    21   11   12 ar
    22   11   28 1
    23   12   17 1
    24   12   13 ar
    25   13   14 ar
    26   13   15 1
    27   15   16 1
    28   15   29 1
    29   15   30 1
    30   16   17 1
    31   16   31 1
    32   16   32 1
    33   17   33 1
    34   17   34 1
    35   18   19 2
    36   18   20 1
    37   20   35 1
    38   20   36 1
@<TRIPOS>MOLECULE
ZINC42080254
   35    37     0     0     0
SMALL
USER_CHARGES

@<TRIPOS>ATOM
      1 C1         -0.0184    1.5028    0.0103 C.3       1 <0>        -0.1167
      2 C2          0.0021   -0.0041    0.0020 C.ar      1 <0>        -0.0449
      3 C3          0.0057   -0.6882   -1.2000 C.ar      1 <0>        -0.1667
      4 C4          0.0240   -2.0707   -1.2121 C.ar      1 <0>        -0.0730
      5 C5          0.0391   -2.7732   -0.0230 C.ar      1 <0>        -0.1586
      6 C6          0.0360   -2.0893    1.1859 C.ar      1 <0>         0.2120
      7 C7          0.0228   -0.7000    1.1944 C.ar      1 <0>        -0.1787
      8 N1          0.0513   -2.7965    2.3902 N.pl3     1 <0>        -0.7234
      9 C8          0.0479   -2.0735    3.6644 C.3       1 <0>         0.1719
     10 H1          0.6107   -1.1442    3.5765 H         1 <0>         0.1318
     11 C9          0.6202   -2.9371    4.7648 C.ar      1 <0>        -0.1584
     12 C10         1.8544   -3.5181    4.9530 C.ar      1 <0>        -0.0304
     13 C11         2.0956   -4.2756    6.0858 C.ar      1 <0>        -0.1365
     14 C12         1.0950   -4.4461    7.0253 C.ar      1 <0>        -0.0442
     15 C13        -0.1430   -3.8654    6.8391 C.ar      1 <0>        -0.1206
     16 C14        -0.3930   -3.1005    5.7003 C.ar      1 <0>         0.1896
     17 N2         -1.5421   -2.4227    5.2906 N.am      1 <0>        -0.6598
     18 C15        -1.3711   -1.7940    4.1119 C.2       1 <0>         0.5143
     19 O1         -2.1958   -1.1305    3.5197 O.2       1 <0>        -0.4685
     20 Br1        -1.5029   -4.1074    8.1307 Br        1 <0>        -0.0391
     21 C16         0.0585   -4.2800   -0.0371 C.3       1 <0>        -0.1057
     22 H2          1.0042    1.8801    0.0026 H         1 <0>         0.0709
     23 H3         -0.5455    1.8639   -0.8728 H         1 <0>         0.0675
     24 H4         -0.5286    1.8543    0.9071 H         1 <0>         0.0656
     25 H5         -0.0061   -0.1414   -2.1312 H         1 <0>         0.1191
     26 H6          0.0260   -2.6019   -2.1525 H         1 <0>         0.1221
     27 H7          0.0245   -0.1651    2.1327 H         1 <0>         0.1182
     28 H8          0.0641   -3.7664    2.3830 H         1 <0>         0.4070
     29 H9          2.6333   -3.3831    4.2171 H         1 <0>         0.1397
     30 H10         3.0627   -4.7320    6.2361 H         1 <0>         0.1439
     31 H11         1.2835   -5.0373    7.9093 H         1 <0>         0.1445
     32 H12        -2.3693   -2.4056    5.7969 H         1 <0>         0.4172
     33 H13         1.0908   -4.6300   -0.0458 H         1 <0>         0.0668
     34 H14        -0.4459   -4.6583    0.8520 H         1 <0>         0.0553
     35 H15        -0.4552   -4.6416   -0.9279 H         1 <0>         0.0679
@<TRIPOS>BOND
     1    1    2 1
     2    1   22 1
     3    1   23 1
     4    1   24 1
     5    2    7 ar
     6    2    3 ar
     7    3    4 ar
     8    3   25 1
     9    4    5 ar
    10    4   26 1
    11    5    6 ar
    12    5   21 1
    13    6    7 ar
    14    6    8 1
    15    7   27 1
    16    8    9 1
    17    8   28 1
    18    9   10 1
    19    9   18 1
    20    9   11 1
    21   11   16 ar
    22   11   12 ar
    23   12   13 ar
    24   12   29 1
    25   13   14 ar
    26   13   30 1
    27   14   15 ar
    28   14   31 1
    29   15   16 ar
    30   15   20 1
    31   16   17 1
    32   17   18 am
    33   17   32 1
    34   18   19 2
    35   21   33 1
    36   21   34 1
    37   21   35 1
@<TRIPOS>MOLECULE
ZINC08683623
   34    36     0     0     0
SMALL
USER_CHARGES

@<TRIPOS>ATOM
      1 C1         -0.0161    1.5028    0.0092 C.3       1 <0>        -0.1184
      2 C2          0.0035   -0.0040    0.0013 C.ar      1 <0>        -0.0730
      3 C3          0.9772   -0.6850    0.7087 C.ar      1 <0>        -0.1083
      4 C4          0.9980   -2.0660    0.7035 C.ar      1 <0>        -0.1129
      5 C5          0.0396   -2.7707   -0.0132 C.ar      1 <0>         0.1420
      6 C6         -0.9370   -2.0837   -0.7226 C.ar      1 <0>        -0.0695
      7 C7         -0.9556   -0.7028   -0.7087 C.ar      1 <0>        -0.1044
      8 N1          0.0581   -4.1694   -0.0209 N.pl3     1 <0>        -0.3660
      9 C8         -0.0278   -4.9227   -1.1252 C.2       1 <0>         0.5395
     10 S1         -0.1746   -4.2921   -2.7100 S.2       1 <0>        -0.5765
     11 N2          0.0159   -6.2359   -0.8356 N.pl3     1 <0>        -0.6774
     12 C9          0.1452   -6.3466    0.6262 C.3       1 <0>         0.3850
     13 N3          0.1720   -4.9471    1.0958 N.3       1 <0>        -0.4344
     14 C10         1.4497   -7.0554    0.9960 C.3       1 <0>        -0.1770
     15 C11        -1.0371   -7.0794    1.2060 C.2       1 <0>        -0.1700
     16 C12        -1.7844   -8.0661    0.6536 C.2       1 <0>        -0.1279
     17 C13        -2.8342   -8.5979    1.3788 C.2       1 <0>        -0.1622
     18 C14        -3.0853   -8.1170    2.6209 C.2       1 <0>        -0.1679
     19 S2         -1.8121   -6.8785    2.8017 S.3       1 <0>         0.1036
     20 H1         -0.6265    1.8539    0.8412 H         1 <0>         0.0743
     21 H2          1.0009    1.8788    0.1206 H         1 <0>         0.0691
     22 H3         -0.4369    1.8656   -0.9286 H         1 <0>         0.0705
     23 H4          1.7225   -0.1364    1.2655 H         1 <0>         0.1319
     24 H5          1.7589   -2.5972    1.2559 H         1 <0>         0.1222
     25 H6         -1.6834   -2.6288   -1.2812 H         1 <0>         0.1386
     26 H7         -1.7173   -0.1681   -1.2566 H         1 <0>         0.1338
     27 H8         -0.0294   -6.9692   -1.4690 H         1 <0>         0.4529
     28 H9          1.0282   -4.7462    1.5905 H         1 <0>         0.3617
     29 H10         2.2942   -6.4936    0.5969 H         1 <0>         0.0771
     30 H11         1.5346   -7.1173    2.0809 H         1 <0>         0.0931
     31 H12         1.4495   -8.0602    0.5736 H         1 <0>         0.0913
     32 H13        -1.5632   -8.4312   -0.3385 H         1 <0>         0.1305
     33 H14        -3.4453   -9.3847    0.9618 H         1 <0>         0.1385
     34 H15        -3.8536   -8.4098    3.3211 H         1 <0>         0.1902
@<TRIPOS>BOND
     1    1    2 1
     2    1   20 1
     3    1   21 1
     4    1   22 1
     5    2    7 ar
     6    2    3 ar
     7    3    4 ar
     8    3   23 1
     9    4    5 ar
    10    4   24 1
    11    5    6 ar
    12    5    8 1
    13    6    7 ar
    14    6   25 1
    15    7   26 1
    16    8   13 1
    17    8    9 1
    18    9   10 2
    19    9   11 1
    20   11   12 1
    21   11   27 1
    22   12   13 1
    23   12   14 1
    24   12   15 1
    25   13   28 1
    26   14   29 1
    27   14   30 1
    28   14   31 1
    29   15   19 1
    30   15   16 2
    31   16   17 1
    32   16   32 1
    33   17   18 2
    34   17   33 1
    35   18   19 1
    36   18   34 1
@<TRIPOS>MOLECULE
ZINC09060307
   45    48     0     0     0
SMALL
USER_CHARGES
(3S)-N-cyclopentyl-1-(9H-purin-6-yl)piperidine-3-carboxamide
@<TRIPOS>ATOM
      1 C1          3.3902    5.6794   -1.3094 C.2       1 <0>         0.2651
      2 N1          4.7180    5.3926   -1.4234 N.pl3     1 <0>        -0.5843
      3 H1          5.4633    6.0562   -1.4876 H         1 <0>         0.4393
      4 C2          4.8442    4.0264   -1.4339 C.ar      1 <0>         0.2884
      5 C3          3.5397    3.5161   -1.3217 C.ar      1 <0>        -0.0669
      6 N2          2.7007    4.5773   -1.2498 N.2       1 <0>        -0.4609
      7 C4          3.3722    2.1211   -1.3073 C.ar      1 <0>         0.4297
      8 N3          4.4530    1.3525   -1.3952 N.ar      1 <0>        -0.5618
      9 C5          5.6592    1.8786   -1.5041 C.ar      1 <0>         0.3471
     10 N4          5.8640    3.1789   -1.5217 N.ar      1 <0>        -0.5398
     11 N5          2.1116    1.5604   -1.1984 N.pl3     1 <0>        -0.4627
     12 C6          1.4188    2.0518   -0.0005 C.3       1 <0>         0.0558
     13 C7         -0.0187    1.5270    0.0104 C.3       1 <0>        -0.1140
     14 C8          0.0021   -0.0041    0.0020 C.3       1 <0>        -0.1154
     15 C9          0.7710   -0.4895   -1.2299 C.3       1 <0>        -0.1089
     16 H2          0.2572   -0.1595   -2.1329 H         1 <0>         0.1077
     17 C10         2.1856    0.0938   -1.2049 C.3       1 <0>         0.0848
     18 C11         0.8462   -1.9945   -1.2153 C.2       1 <0>         0.5213
     19 O1          1.9253   -2.5476   -1.1908 O.2       1 <0>        -0.5318
     20 N6         -0.2858   -2.7260   -1.2295 N.am      1 <0>        -0.7245
     21 C12        -0.2127   -4.1891   -1.2153 C.3       1 <0>         0.1391
     22 C13        -0.1052   -4.7268   -2.6572 C.3       1 <0>        -0.1351
     23 C14        -0.9489   -6.0257   -2.6420 C.3       1 <0>        -0.1254
     24 C15        -2.1391   -5.6495   -1.7249 C.3       1 <0>        -0.1249
     25 C16        -1.5058   -4.7757   -0.6225 C.3       1 <0>        -0.1316
     26 H3          2.9721    6.6746   -1.2743 H         1 <0>         0.2290
     27 H4          6.5100    1.2174   -1.5770 H         1 <0>         0.2072
     28 H5          1.4074    3.1417   -0.0089 H         1 <0>         0.1058
     29 H6          1.9403    1.7012    0.8902 H         1 <0>         0.0470
     30 H7         -0.5449    1.8886   -0.8730 H         1 <0>         0.0802
     31 H8         -0.5279    1.8791    0.9076 H         1 <0>         0.0819
     32 H9          0.4940   -0.3667    0.9046 H         1 <0>         0.0693
     33 H10        -1.0197   -0.3820   -0.0329 H         1 <0>         0.0744
     34 H11         2.7034   -0.2477   -0.3086 H         1 <0>         0.0646
     35 H12         2.7310   -0.2382   -2.0883 H         1 <0>         0.0978
     36 H13        -1.1488   -2.2837   -1.2491 H         1 <0>         0.3996
     37 H14         0.6474   -4.5140   -0.6298 H         1 <0>         0.0917
     38 H15        -0.5221   -4.0094   -3.3639 H         1 <0>         0.0697
     39 H16         0.9327   -4.9490   -2.9051 H         1 <0>         0.0712
     40 H17        -0.3791   -6.8515   -2.2161 H         1 <0>         0.0696
     41 H18        -1.2973   -6.2751   -3.6443 H         1 <0>         0.0692
     42 H19        -2.5855   -6.5450   -1.2926 H         1 <0>         0.0687
     43 H20        -2.8861   -5.0817   -2.2796 H         1 <0>         0.0670
     44 H21        -1.2733   -5.3860    0.2501 H         1 <0>         0.0750
     45 H22        -2.1878   -3.9718   -0.3455 H         1 <0>         0.0708
@<TRIPOS>BOND
     1    1    6 2
     2    1    2 1
     3    1   26 1
     4    2    3 1
     5    2    4 1
     6    4   10 ar
     7    4    5 ar
     8    5    6 1
     9    5    7 ar
    10    7    8 ar
    11    7   11 1
    12    8    9 ar
    13    9   10 ar
    14    9   27 1
    15   11   17 1
    16   11   12 1
    17   12   13 1
    18   12   28 1
    19   12   29 1
    20   13   14 1
    21   13   30 1
    22   13   31 1
    23   14   15 1
    24   14   32 1
    25   14   33 1
    26   15   16 1
    27   15   17 1
    28   15   18 1
    29   17   34 1
    30   17   35 1
    31   18   19 2
    32   18   20 am
    33   20   21 1
    34   20   36 1
    35   21   25 1
    36   21   22 1
    37   21   37 1
    38   22   23 1
    39   22   38 1
    40   22   39 1
    41   23   24 1
    42   23   40 1
    43   23   41 1
    44   24   25 1
    45   24   42 1
    46   24   43 1
    47   25   44 1
    48   25   45 1
@<TRIPOS>MOLECULE
ZINC39953888
   37    39     0     0     0
SMALL
USER_CHARGES

@<TRIPOS>ATOM
      1 C1          0.6734    1.1977   -0.2292 C.3       1 <0>         0.0537
      2 O1          0.5661   -0.2261   -0.1715 O.3       1 <0>        -0.3634
      3 C2         -0.6750   -0.7472   -0.1997 C.2       1 <0>         0.6562
      4 O2         -1.6407   -0.0131   -0.2713 O.2       1 <0>        -0.5539
      5 N1         -0.8464   -2.0830   -0.1484 N.am      1 <0>        -0.6815
      6 C3         -2.1968   -2.6500   -0.1791 C.3       1 <0>         0.3975
      7 H1         -2.8523   -2.0879    0.4861 H         1 <0>         0.1550
      8 N2         -2.7231   -2.6183   -1.5461 N.2       1 <0>        -0.4321
      9 C4         -2.9747   -3.8353   -1.9322 C.2       1 <0>         0.1391
     10 C5         -3.5109   -4.3647   -3.2030 C.2       1 <0>        -0.0229
     11 C6         -3.6778   -5.6907   -3.3465 C.2       1 <0>        -0.1234
     12 C7         -3.3315   -6.6061   -2.2538 C.2       1 <0>         0.2849
     13 C8         -2.8195   -6.1177   -1.0356 C.2       1 <0>        -0.2423
     14 C9         -2.6350   -4.7842   -0.8482 C.2       1 <0>         0.2028
     15 N3         -2.1589   -4.0610    0.2269 N.2       1 <0>        -0.5110
     16 N4         -3.5038   -7.9174   -2.4156 N.am      1 <0>        -0.6656
     17 C10        -4.0995   -8.3831   -3.5206 C.2       1 <0>         0.5775
     18 O3         -5.2112   -7.9888   -3.8256 O.2       1 <0>        -0.4532
     19 C11        -3.4072   -9.3772   -4.3719 C.ar      1 <0>        -0.1629
     20 C12        -2.1363   -9.8350   -4.0223 C.ar      1 <0>        -0.0714
     21 C13        -1.4965  -10.7613   -4.8197 C.ar      1 <0>        -0.1289
     22 C14        -2.1123  -11.2360   -5.9643 C.ar      1 <0>        -0.0787
     23 C15        -3.3722  -10.7856   -6.3168 C.ar      1 <0>        -0.1287
     24 C16        -4.0253   -9.8644   -5.5241 C.ar      1 <0>        -0.0515
     25 H2          1.7246    1.4844   -0.1986 H         1 <0>         0.1063
     26 H3          0.2252    1.5586   -1.1549 H         1 <0>         0.0630
     27 H4          0.1523    1.6362    0.6218 H         1 <0>         0.0630
     28 H5         -0.0755   -2.6690   -0.0912 H         1 <0>         0.4150
     29 H6         -3.7665   -3.6927   -4.0088 H         1 <0>         0.1582
     30 H7         -4.0693   -6.0849   -4.2727 H         1 <0>         0.1530
     31 H8         -2.5716   -6.8089   -0.2436 H         1 <0>         0.1452
     32 H9         -3.1977   -8.5347   -1.7329 H         1 <0>         0.4294
     33 H10        -1.6543   -9.4648   -3.1295 H         1 <0>         0.1313
     34 H11        -0.5128  -11.1165   -4.5502 H         1 <0>         0.1338
     35 H12        -1.6071  -11.9608   -6.5855 H         1 <0>         0.1321
     36 H13        -3.8474  -11.1596   -7.2116 H         1 <0>         0.1350
     37 H14        -5.0108   -9.5172   -5.7977 H         1 <0>         0.1393
@<TRIPOS>BOND
     1    1    2 1
     2    1   25 1
     3    1   26 1
     4    1   27 1
     5    2    3 1
     6    3    4 2
     7    3    5 am
     8    5    6 1
     9    5   28 1
    10    6    7 1
    11    6   15 1
    12    6    8 1
    13    8    9 2
    14    9   14 1
    15    9   10 1
    16   10   11 2
    17   10   29 1
    18   11   12 1
    19   11   30 1
    20   12   13 1
    21   12   16 2
    22   13   14 2
    23   13   31 1
    24   14   15 1
    25   16   17 am
    26   16   32 1
    27   17   18 2
    28   17   19 1
    29   19   24 ar
    30   19   20 ar
    31   20   21 ar
    32   20   33 1
    33   21   22 ar
    34   21   34 1
    35   22   23 ar
    36   22   35 1
    37   23   24 ar
    38   23   36 1
    39   24   37 1
@<TRIPOS>MOLECULE
ZINC51751673
   40    41     0     0     0
SMALL
USER_CHARGES

@<TRIPOS>ATOM
      1 C1          0.1187    1.7333    0.0655 C.3       1 <0>        -0.1488
      2 C2          0.1019    0.2119    0.2267 C.3       1 <0>        -0.0905
      3 H1         -0.9004   -0.1126    0.5062 H         1 <0>         0.0790
      4 C3          0.5002   -0.4455   -1.0966 C.3       1 <0>        -0.1355
      5 C4          0.4488   -1.9687   -0.9413 C.3       1 <0>         0.1110
      6 N1          1.2873   -2.3561    0.2013 N.pl3     1 <0>        -0.9922
      7 C5          1.0481   -1.7163    1.5021 C.3       1 <0>         0.1491
      8 H2          1.8207   -2.0224    2.2074 H         1 <0>         0.0966
      9 C6          1.0930   -0.1959    1.3192 C.3       1 <0>        -0.1257
     10 C7         -0.3252   -2.1318    2.0333 C.3       1 <0>        -0.1636
     11 S1          2.4789   -3.4927    0.0264 S.o2      1 <0>         2.6897
     12 O1          2.5619   -4.1876    1.2631 O.2       1 <0>        -0.9409
     13 O2          2.2296   -4.1563   -1.2051 O.2       1 <0>        -0.9506
     14 C8          4.0008   -2.6263   -0.1675 C.ar      1 <0>        -0.7234
     15 C9          4.9711   -2.7052    0.8124 C.ar      1 <0>         0.0308
     16 C10         6.1657   -2.0257    0.6610 C.ar      1 <0>        -0.1396
     17 C11         6.3934   -1.2649   -0.4714 C.ar      1 <0>         0.0531
     18 C12         5.4277   -1.1816   -1.4549 C.ar      1 <0>        -0.1514
     19 C13         4.2285   -1.8678   -1.3085 C.ar      1 <0>         0.3204
     20 N2          3.2519   -1.7904   -2.3040 N.pl3     1 <0>        -0.8556
     21 N3          7.6734   -0.5388   -0.6290 N.pl3     1 <0>         0.0226
     22 O3          8.5193   -0.6109    0.2318 O.2       1 <0>        -0.1389
     23 O4          7.8732    0.1264   -1.6185 O.3       1 <0>        -0.1462
     24 H3          1.1209    2.0580   -0.2140 H         1 <0>         0.0532
     25 H4         -0.5875    2.0240   -0.7123 H         1 <0>         0.0568
     26 H5         -0.1655    2.2017    1.0078 H         1 <0>         0.0573
     27 H6         -0.1922   -0.1361   -1.8795 H         1 <0>         0.0805
     28 H7          1.5121   -0.1410   -1.3641 H         1 <0>         0.0698
     29 H8         -0.5795   -2.2833   -0.7633 H         1 <0>         0.0871
     30 H9          0.8260   -2.4414   -1.8482 H         1 <0>         0.0874
     31 H10         2.0992    0.1062    1.0288 H         1 <0>         0.0666
     32 H11         0.8226    0.2912    2.2560 H         1 <0>         0.0799
     33 H12        -0.3566   -3.2150    2.1511 H         1 <0>         0.0643
     34 H13        -0.5007   -1.6562    2.9983 H         1 <0>         0.0722
     35 H14        -1.0967   -1.8204    1.3291 H         1 <0>         0.0655
     36 H15         4.7963   -3.2981    1.6980 H         1 <0>         0.1661
     37 H16         6.9225   -2.0888    1.4288 H         1 <0>         0.1617
     38 H17         5.6060   -0.5871   -2.3387 H         1 <0>         0.1615
     39 H18         2.4024   -2.2436   -2.1863 H         1 <0>         0.4054
     40 H19         3.4231   -1.2835   -3.1131 H         1 <0>         0.4153
@<TRIPOS>BOND
     1    1    2 1
     2    1   24 1
     3    1   25 1
     4    1   26 1
     5    2    3 1
     6    2    9 1
     7    2    4 1
     8    4    5 1
     9    4   27 1
    10    4   28 1
    11    5    6 1
    12    5   29 1
    13    5   30 1
    14    6    7 1
    15    6   11 1
    16    7    8 1
    17    7    9 1
    18    7   10 1
    19    9   31 1
    20    9   32 1
    21   10   33 1
    22   10   34 1
    23   10   35 1
    24   11   12 2
    25   11   13 2
    26   11   14 1
    27   14   19 ar
    28   14   15 ar
    29   15   16 ar
    30   15   36 1
    31   16   17 ar
    32   16   37 1
    33   17   18 ar
    34   17   21 1
    35   18   19 ar
    36   18   38 1
    37   19   20 1
    38   20   39 1
    39   20   40 1
    40   21   22 2
    41   21   23 1
@<TRIPOS>MOLECULE
ZINC05731658
   37    40     0     0     0
SMALL
USER_CHARGES

@<TRIPOS>ATOM
      1 C1          0.0475    1.3185    0.7633 C.ar      1 <0>        -0.1351
      2 C2          1.2293    2.0349    0.6757 C.ar      1 <0>        -0.0608
      3 C3          2.4181    1.3970    0.3847 C.ar      1 <0>        -0.1319
      4 C4          2.4398    0.0224    0.1754 C.ar      1 <0>         0.1745
      5 C5          1.2421   -0.6984    0.2651 C.ar      1 <0>        -0.1626
      6 C6          0.0495   -0.0469    0.5591 C.ar      1 <0>        -0.0557
      7 C7          1.5850   -2.1146   -0.0029 C.2       1 <0>         0.0756
      8 N1          0.7723   -3.1427   -0.0226 N.2       1 <0>        -0.1121
      9 N2         -0.6096   -2.9458    0.0975 N.am      1 <0>        -0.5731
     10 C8         -1.4349   -4.0063    0.2012 C.2       1 <0>         0.5384
     11 O1         -0.9814   -5.1307    0.1906 O.2       1 <0>        -0.4490
     12 C9         -2.9213   -3.7944    0.3303 C.3       1 <0>         0.0436
     13 H1         -3.1269   -3.1375    1.1754 H         1 <0>         0.1202
     14 C10        -3.4684   -3.1661   -0.9586 C.3       1 <0>         0.0322
     15 O2         -4.8815   -2.9920   -0.8076 O.3       1 <0>        -0.2956
     16 C11        -5.5773   -4.0478   -0.3042 C.ar      1 <0>         0.0435
     17 C12        -6.9542   -4.0944   -0.4648 C.ar      1 <0>        -0.1091
     18 C13        -7.6750   -5.1583    0.0437 C.ar      1 <0>        -0.1120
     19 C14        -7.0259   -6.1788    0.7135 C.ar      1 <0>        -0.1105
     20 C15        -5.6541   -6.1392    0.8757 C.ar      1 <0>        -0.1068
     21 C16        -4.9246   -5.0750    0.3668 C.ar      1 <0>         0.0497
     22 O3         -3.5731   -5.0538    0.5281 O.3       1 <0>        -0.2768
     23 C17         3.0425   -2.1150   -0.2430 C.2       1 <0>         0.5916
     24 O4          3.7256   -3.0883   -0.5012 O.2       1 <0>        -0.4598
     25 N3          3.4801   -0.8498   -0.1261 N.am      1 <0>        -0.6473
     26 H2         -0.8760    1.8278    0.9961 H         1 <0>         0.1393
     27 H3          1.2206    3.1029    0.8362 H         1 <0>         0.1408
     28 H4          3.3334    1.9667    0.3190 H         1 <0>         0.1383
     29 H5         -0.8716   -0.6066    0.6269 H         1 <0>         0.1195
     30 H6         -0.9723   -2.0462    0.1059 H         1 <0>         0.3932
     31 H7         -2.9946   -2.1988   -1.1258 H         1 <0>         0.1268
     32 H8         -3.2674   -3.8254   -1.8030 H         1 <0>         0.0912
     33 H9         -7.4636   -3.2984   -0.9875 H         1 <0>         0.1378
     34 H10        -8.7470   -5.1927   -0.0827 H         1 <0>         0.1359
     35 H11        -7.5920   -7.0083    1.1109 H         1 <0>         0.1364
     36 H12        -5.1496   -6.9377    1.3994 H         1 <0>         0.1389
     37 H13         4.4048   -0.5791   -0.2380 H         1 <0>         0.4309
@<TRIPOS>BOND
     1    1    6 ar
     2    1    2 ar
     3    1   26 1
     4    2    3 ar
     5    2   27 1
     6    3    4 ar
     7    3   28 1
     8    4   25 1
     9    4    5 ar
    10    5    6 ar
    11    5    7 1
    12    6   29 1
    13    7    8 2
    14    7   23 1
    15    8    9 1
    16    9   10 am
    17    9   30 1
    18   10   11 2
    19   10   12 1
    20   12   13 1
    21   12   22 1
    22   12   14 1
    23   14   15 1
    24   14   31 1
    25   14   32 1
    26   15   16 1
    27   16   21 ar
    28   16   17 ar
    29   17   18 ar
    30   17   33 1
    31   18   19 ar
    32   18   34 1
    33   19   20 ar
    34   19   35 1
    35   20   21 ar
    36   20   36 1
    37   21   22 1
    38   23   24 2
    39   23   25 am
    40   25   37 1
@<TRIPOS>MOLECULE
ZINC67016621
   39    41     0     0     0
SMALL
USER_CHARGES

@<TRIPOS>ATOM
      1 C1         -0.0187    1.5258    0.0104 C.3       1 <0>        -0.1665
      2 C2          0.0021   -0.0041    0.0020 C.3       1 <0>         0.1582
      3 C3          0.7421   -0.5109    1.2415 C.3       1 <0>        -0.1655
      4 N1         -1.3723   -0.5112    0.0124 N.pl3     1 <0>        -0.3617
      5 C4         -2.1470   -0.6989    1.1124 C.2       1 <0>         0.0293
      6 C5         -3.3450   -1.1794    0.6925 C.2       1 <0>         0.0068
      7 C6         -3.2988   -1.2875   -0.7050 C.2       1 <0>         0.0546
      8 N2         -2.1226   -0.8826   -1.1106 N.2       1 <0>        -0.2799
      9 N3         -4.4396   -1.5111    1.5142 N.am      1 <0>        -0.6389
     10 C7         -5.5770   -1.9807    0.9644 C.2       1 <0>         0.7116
     11 O1         -5.6581   -2.1180   -0.2411 O.2       1 <0>        -0.5407
     12 N4         -6.6245   -2.2981    1.7508 N.am      1 <0>        -0.6166
     13 C8         -7.7971   -2.7822    1.1841 C.2       1 <0>         0.3352
     14 N5         -8.9231   -3.1405    1.7722 N.2       1 <0>        -0.5368
     15 C9         -9.9547   -3.5852    1.0698 C.2       1 <0>         0.1192
     16 C10        -9.8514   -3.6748   -0.2901 C.2       1 <0>        -0.2401
     17 S1         -8.1839   -3.0778   -0.5358 S.3       1 <0>         0.1418
     18 C11       -11.2098   -3.9825    1.7530 C.ar      1 <0>        -0.0737
     19 C12       -11.3610   -3.7904    3.1295 C.ar      1 <0>        -0.0454
     20 C13       -12.5516   -4.1775    3.7194 C.ar      1 <0>        -0.1739
     21 C14       -13.5446   -4.7369    2.9356 C.ar      1 <0>         0.1002
     22 N6        -13.3731   -4.9062    1.6389 N.ar      1 <0>        -0.4817
     23 C15       -12.2599   -4.5481    1.0322 C.ar      1 <0>         0.1151
     24 H1          1.0039    1.9031    0.0027 H         1 <0>         0.0794
     25 H2         -0.5459    1.8868   -0.8726 H         1 <0>         0.0665
     26 H3         -0.5289    1.8773    0.9072 H         1 <0>         0.0625
     27 H4          0.5123   -0.3556   -0.8948 H         1 <0>         0.1060
     28 H5          0.2319   -0.1594    2.1383 H         1 <0>         0.0659
     29 H6          0.7568   -1.6008    1.2356 H         1 <0>         0.0676
     30 H7          1.7647   -0.1336    1.2338 H         1 <0>         0.0845
     31 H8         -1.8616   -0.5017    2.1352 H         1 <0>         0.1764
     32 H9         -4.0990   -1.6405   -1.3386 H         1 <0>         0.2072
     33 H10        -4.3749   -1.4015    2.4758 H         1 <0>         0.4123
     34 H11        -6.5599   -2.1886    2.7124 H         1 <0>         0.4240
     35 H12       -10.5775   -4.0098   -1.0160 H         1 <0>         0.2011
     36 H13       -10.5687   -3.3514    3.7176 H         1 <0>         0.1421
     37 H14       -12.7036   -4.0446    4.7804 H         1 <0>         0.1380
     38 H15       -14.4750   -5.0401    3.3927 H         1 <0>         0.1579
     39 H16       -12.1583   -4.6985   -0.0324 H         1 <0>         0.1580
@<TRIPOS>BOND
     1    1    2 1
     2    1   24 1
     3    1   25 1
     4    1   26 1
     5    2    3 1
     6    2    4 1
     7    2   27 1
     8    3   28 1
     9    3   29 1
    10    3   30 1
    11    4    8 1
    12    4    5 1
    13    5    6 2
    14    5   31 1
    15    6    7 1
    16    6    9 1
    17    7    8 2
    18    7   32 1
    19    9   10 am
    20    9   33 1
    21   10   11 2
    22   10   12 am
    23   12   13 1
    24   12   34 1
    25   13   17 1
    26   13   14 2
    27   14   15 1
    28   15   16 2
    29   15   18 1
    30   16   17 1
    31   16   35 1
    32   18   23 ar
    33   18   19 ar
    34   19   20 ar
    35   19   36 1
    36   20   21 ar
    37   20   37 1
    38   21   22 ar
    39   21   38 1
    40   22   23 ar
    41   23   39 1
@<TRIPOS>MOLECULE
ZINC05187520
   49    52     0     0     0
SMALL
USER_CHARGES
4-(1H-indol-3-yl)-6-(4-tert-butylphenyl)-4,5-dihydro-2H-pyridazin-3-one
@<TRIPOS>ATOM
      1 C1         -2.1133   -0.4041   -1.2285 C.3       1 <0>        -0.1401
      2 C2         -1.2947   -0.7717    0.0108 C.3       1 <0>        -0.0338
      3 C3         -0.9990   -2.2728   -0.0002 C.3       1 <0>        -0.1467
      4 C4         -2.0886   -0.4175    1.2698 C.3       1 <0>        -0.1398
      5 C5          0.0021   -0.0041    0.0020 C.ar      1 <0>        -0.0483
      6 C6         -0.0167    1.3795    0.0096 C.ar      1 <0>        -0.1188
      7 C7          1.1664    2.0886    0.0021 C.ar      1 <0>        -0.0851
      8 C8          2.3854    1.4066   -0.0131 C.ar      1 <0>        -0.0588
      9 C9          2.3967    0.0098   -0.0207 C.ar      1 <0>        -0.0746
     10 C10         1.2059   -0.6862   -0.0131 C.ar      1 <0>        -0.1268
     11 C11         3.6546    2.1579   -0.0207 C.2       1 <0>         0.1627
     12 N1          4.7739    1.5127   -0.0344 N.2       1 <0>        -0.2528
     13 N2          6.0024    2.1784   -0.0161 N.am      1 <0>        -0.5607
     14 C12         6.0700    3.4806    0.3204 C.2       1 <0>         0.5036
     15 O1          7.1275    4.0719    0.2609 O.2       1 <0>        -0.5138
     16 C13         4.8228    4.1999    0.7712 C.3       1 <0>        -0.0262
     17 H1          4.9312    5.2684    0.5854 H         1 <0>         0.1242
     18 C14         3.6230    3.6633   -0.0186 C.3       1 <0>        -0.1179
     19 C15         4.6099    3.9638    2.2443 C.2       1 <0>        -0.1768
     20 C16         4.4352    2.7765    2.8457 C.2       1 <0>         0.0725
     21 N3          4.2727    2.9550    4.1925 N.pl3     1 <0>        -0.5888
     22 H2          4.1308    2.2431    4.8359 H         1 <0>         0.4186
     23 C17         4.3406    4.2958    4.4986 C.ar      1 <0>         0.0963
     24 C18         4.5606    4.9861    3.2924 C.ar      1 <0>        -0.0916
     25 C19         4.6675    6.3779    3.2961 C.ar      1 <0>        -0.0712
     26 C20         4.5682    7.0628    4.4746 C.ar      1 <0>        -0.1411
     27 C21         4.3569    6.3861    5.6677 C.ar      1 <0>        -0.0965
     28 C22         4.2431    5.0130    5.6862 C.ar      1 <0>        -0.1282
     29 H3         -1.5478   -0.6564   -2.1255 H         1 <0>         0.0576
     30 H4         -3.0513   -0.9593   -1.2222 H         1 <0>         0.0604
     31 H5         -2.3241    0.6653   -1.2207 H         1 <0>         0.0582
     32 H6         -0.4158   -2.5346    0.8826 H         1 <0>         0.0594
     33 H7         -1.9369   -2.8280    0.0061 H         1 <0>         0.0601
     34 H8         -0.4334   -2.5251   -0.8972 H         1 <0>         0.0601
     35 H9         -2.2993    0.6519    1.2777 H         1 <0>         0.0581
     36 H10        -3.0265   -0.9727    1.2762 H         1 <0>         0.0605
     37 H11        -1.5054   -0.6794    2.1527 H         1 <0>         0.0566
     38 H12        -0.9599    1.9054    0.0169 H         1 <0>         0.1271
     39 H13         1.1503    3.1684    0.0077 H         1 <0>         0.1304
     40 H14         3.3355   -0.5238   -0.0329 H         1 <0>         0.1342
     41 H15         1.2131   -1.7662   -0.0186 H         1 <0>         0.1316
     42 H16         6.8131    1.6986   -0.2474 H         1 <0>         0.4318
     43 H17         3.6670    4.0284   -1.0447 H         1 <0>         0.1031
     44 H18         2.6996    4.0061    0.4484 H         1 <0>         0.1090
     45 H19         4.4248    1.8216    2.3412 H         1 <0>         0.1663
     46 H20         4.8323    6.9113    2.3716 H         1 <0>         0.1228
     47 H21         4.6552    8.1393    4.4775 H         1 <0>         0.1247
     48 H22         4.2813    6.9412    6.5910 H         1 <0>         0.1270
     49 H23         4.0791    4.4955    6.6198 H         1 <0>         0.1213
@<TRIPOS>BOND
     1    1    2 1
     2    1   29 1
     3    1   30 1
     4    1   31 1
     5    2    3 1
     6    2    4 1
     7    2    5 1
     8    3   32 1
     9    3   33 1
    10    3   34 1
    11    4   35 1
    12    4   36 1
    13    4   37 1
    14    5   10 ar
    15    5    6 ar
    16    6    7 ar
    17    6   38 1
    18    7    8 ar
    19    7   39 1
    20    8    9 ar
    21    8   11 1
    22    9   10 ar
    23    9   40 1
    24   10   41 1
    25   11   18 1
    26   11   12 2
    27   12   13 1
    28   13   14 am
    29   13   42 1
    30   14   15 2
    31   14   16 1
    32   16   17 1
    33   16   18 1
    34   16   19 1
    35   18   43 1
    36   18   44 1
    37   19   24 1
    38   19   20 2
    39   20   21 1
    40   20   45 1
    41   21   22 1
    42   21   23 1
    43   23   28 ar
    44   23   24 ar
    45   24   25 ar
    46   25   26 ar
    47   25   46 1
    48   26   27 ar
    49   26   47 1
    50   27   28 ar
    51   27   48 1
    52   28   49 1
@<TRIPOS>MOLECULE
ZINC13562376
   51    54     0     0     0
SMALL
USER_CHARGES
(1R,4S,5S,6R)-N,N'-bis(m-tolyl)bicyclo[2.2.1]hept-2-ene-5,6-dicarboxamide
@<TRIPOS>ATOM
      1 C1         -2.1652   -4.6020   -0.6330 C.3       1 <0>        -0.1148
      2 C2         -1.3154   -3.7591   -1.5486 C.ar      1 <0>        -0.0687
      3 C3         -0.8493   -4.2869   -2.7389 C.ar      1 <0>        -0.1334
      4 C4         -0.0690   -3.5170   -3.5815 C.ar      1 <0>        -0.0957
      5 C5          0.2428   -2.2155   -3.2391 C.ar      1 <0>        -0.1426
      6 C6         -0.2187   -1.6845   -2.0421 C.ar      1 <0>         0.1492
      7 C7         -1.0024   -2.4606   -1.1979 C.ar      1 <0>        -0.1197
      8 N1          0.1002   -0.3685   -1.6897 N.am      1 <0>        -0.6731
      9 C8         -0.8004    0.3909   -1.0347 C.2       1 <0>         0.5118
     10 O1         -1.8533   -0.0918   -0.6749 O.2       1 <0>        -0.4931
     11 C9         -0.4990    1.8396   -0.7495 C.3       1 <0>        -0.0991
     12 H1          0.5603    1.9736   -0.5303 H         1 <0>         0.1073
     13 C10        -1.3749    2.3599    0.4345 C.3       1 <0>        -0.0529
     14 H2         -1.4410    1.7108    1.3077 H         1 <0>         0.1122
     15 C11        -2.7132    2.6890   -0.3311 C.3       1 <0>        -0.1191
     16 C12        -2.0066    3.6754   -1.3314 C.3       1 <0>        -0.0539
     17 H3         -2.6497    4.1958   -2.0411 H         1 <0>         0.1089
     18 C13        -0.9246    2.7294   -1.9431 C.3       1 <0>        -0.0972
     19 H4         -0.0766    3.3057   -2.3129 H         1 <0>         0.1069
     20 C14        -1.5172    1.8895   -3.0451 C.2       1 <0>         0.5121
     21 O2         -2.7087    1.6633   -3.0614 O.2       1 <0>        -0.4929
     22 N2         -0.7231    1.3896   -4.0126 N.am      1 <0>        -0.6717
     23 C15        -1.2842    0.6862   -5.0842 C.ar      1 <0>         0.1488
     24 C16        -2.3941   -0.1235   -4.8804 C.ar      1 <0>        -0.1141
     25 C17        -2.9454   -0.8164   -5.9400 C.ar      1 <0>        -0.0974
     26 C18        -2.3935   -0.7048   -7.2033 C.ar      1 <0>        -0.1325
     27 C19        -1.2886    0.1004   -7.4095 C.ar      1 <0>        -0.0698
     28 C20        -0.7359    0.8006   -6.3548 C.ar      1 <0>        -0.1473
     29 C21        -0.6901    0.2187   -8.7875 C.3       1 <0>        -0.1143
     30 C22        -1.2211    4.5565   -0.3523 C.2       1 <0>        -0.1636
     31 C23        -0.8449    3.8122    0.6682 C.2       1 <0>        -0.1628
     32 H5         -3.2162   -4.4720   -0.8909 H         1 <0>         0.0720
     33 H6         -1.8904   -5.6508   -0.7455 H         1 <0>         0.0672
     34 H7         -2.0035   -4.2928    0.3997 H         1 <0>         0.0660
     35 H8         -1.0951   -5.3028   -3.0107 H         1 <0>         0.1217
     36 H9          0.2931   -3.9319   -4.5105 H         1 <0>         0.1240
     37 H10         0.8487   -1.6131   -3.8998 H         1 <0>         0.1190
     38 H11        -1.3670   -2.0489   -0.2684 H         1 <0>         0.1359
     39 H12         0.9694   -0.0026   -1.9167 H         1 <0>         0.4066
     40 H13        -3.4442    3.1904    0.3033 H         1 <0>         0.0776
     41 H14        -3.1333    1.8166   -0.8316 H         1 <0>         0.1037
     42 H15         0.2373    1.5175   -3.9661 H         1 <0>         0.4056
     43 H16        -2.8258   -0.2108   -3.8943 H         1 <0>         0.1352
     44 H17        -3.8083   -1.4464   -5.7821 H         1 <0>         0.1231
     45 H18        -2.8263   -1.2480   -8.0303 H         1 <0>         0.1216
     46 H19         0.1244    1.4328   -6.5174 H         1 <0>         0.1222
     47 H20        -1.1636    1.0437   -9.3196 H         1 <0>         0.0708
     48 H21         0.3802    0.4069   -8.7038 H         1 <0>         0.0655
     49 H22        -0.8542   -0.7090   -9.3357 H         1 <0>         0.0678
     50 H23        -1.0118    5.6086   -0.4778 H         1 <0>         0.1333
     51 H24        -0.2750    4.1509    1.5208 H         1 <0>         0.1337
@<TRIPOS>BOND
     1    1    2 1
     2    1   32 1
     3    1   33 1
     4    1   34 1
     5    2    7 ar
     6    2    3 ar
     7    3    4 ar
     8    3   35 1
     9    4    5 ar
    10    4   36 1
    11    5    6 ar
    12    5   37 1
    13    6    7 ar
    14    6    8 1
    15    7   38 1
    16    8    9 am
    17    8   39 1
    18    9   10 2
    19    9   11 1
    20   11   12 1
    21   11   18 1
    22   11   13 1
    23   13   14 1
    24   13   31 1
    25   13   15 1
    26   15   16 1
    27   15   40 1
    28   15   41 1
    29   16   17 1
    30   16   18 1
    31   16   30 1
    32   18   19 1
    33   18   20 1
    34   20   21 2
    35   20   22 am
    36   22   23 1
    37   22   42 1
    38   23   28 ar
    39   23   24 ar
    40   24   25 ar
    41   24   43 1
    42   25   26 ar
    43   25   44 1
    44   26   27 ar
    45   26   45 1
    46   27   28 ar
    47   27   29 1
    48   28   46 1
    49   29   47 1
    50   29   48 1
    51   29   49 1
    52   30   31 2
    53   30   50 1
    54   31   51 1
@<TRIPOS>MOLECULE
ZINC25092431
   50    52     0     0     0
SMALL
USER_CHARGES
N-[(1R,2S)-2-tert-butylcyclohexyl]-1-oxo-2H-isoquinoline-3-carboxamide
@<TRIPOS>ATOM
      1 C1          0.6617   -0.2577    2.1601 C.3       1 <0>        -0.1790
      2 C2          1.9074    0.6306    2.1511 C.3       1 <0>        -0.0587
      3 C3          2.8934    0.1372    3.2119 C.3       1 <0>        -0.1468
      4 C4          1.5064    2.0745    2.4599 C.3       1 <0>        -0.1494
      5 C5          2.5681    0.5686    0.7725 C.3       1 <0>        -0.0819
      6 H1          2.7544   -0.4812    0.5021 H         1 <0>         0.0769
      7 C6          3.8951    1.3294    0.8083 C.3       1 <0>        -0.1164
      8 C7          4.5559    1.2673   -0.5703 C.3       1 <0>        -0.1233
      9 C8          3.6304    1.9048   -1.6086 C.3       1 <0>        -0.1178
     10 C9          2.3034    1.1440   -1.6443 C.3       1 <0>        -0.1302
     11 C10         1.6427    1.2060   -0.2658 C.3       1 <0>         0.1492
     12 H2          1.4128    2.2465    0.0070 H         1 <0>         0.1026
     13 N1          0.3721    0.4776   -0.3000 N.am      1 <0>        -0.7247
     14 C11        -0.7652    1.1215   -0.6295 C.2       1 <0>         0.5588
     15 O1         -0.7374    2.3082   -0.8934 O.2       1 <0>        -0.5154
     16 C12        -2.0432    0.3870   -0.6698 C.2       1 <0>         0.0855
     17 C13        -3.1757    1.0567   -0.9986 C.2       1 <0>        -0.1065
     18 C14        -4.4480    0.3363   -1.0460 C.ar      1 <0>        -0.0142
     19 C15        -5.6428    0.9751   -1.3827 C.ar      1 <0>        -0.1117
     20 C16        -6.8159    0.2529   -1.4075 C.ar      1 <0>        -0.0847
     21 C17        -6.8211   -1.1013   -1.1015 C.ar      1 <0>        -0.1256
     22 C18        -5.6528   -1.7524   -0.7663 C.ar      1 <0>        -0.0526
     23 C19        -4.4545   -1.0430   -0.7346 C.ar      1 <0>        -0.1402
     24 C20        -3.1817   -1.6889   -0.3833 C.2       1 <0>         0.5536
     25 O2         -3.1501   -2.8747   -0.1092 O.2       1 <0>        -0.5232
     26 N2         -2.0503   -0.9574   -0.3669 N.am      1 <0>        -0.6407
     27 H3         -1.1120   -1.4662   -0.1010 H         1 <0>         0.4285
     28 H4         -0.0471    0.0971    1.3974 H         1 <0>         0.0790
     29 H5          0.1867   -0.2130    3.1512 H         1 <0>         0.0560
     30 H6          0.9500   -1.2958    1.9381 H         1 <0>         0.0544
     31 H7          3.7890    0.7759    3.2054 H         1 <0>         0.0605
     32 H8          3.1817   -0.9009    2.9899 H         1 <0>         0.0548
     33 H9          2.4184    0.1819    4.2030 H         1 <0>         0.0548
     34 H10         2.4020    2.7131    2.4534 H         1 <0>         0.0585
     35 H11         1.0314    2.1191    3.4510 H         1 <0>         0.0541
     36 H12         0.7975    2.4293    1.6972 H         1 <0>         0.0589
     37 H13         3.7087    2.3792    1.0786 H         1 <0>         0.0689
     38 H14         4.5605    0.8712    1.5548 H         1 <0>         0.0736
     39 H15         5.5100    1.8142   -0.5446 H         1 <0>         0.0654
     40 H16         4.7423    0.2175   -0.8406 H         1 <0>         0.0628
     41 H17         3.4440    2.9546   -1.3382 H         1 <0>         0.0653
     42 H18         4.1054    1.8602   -2.5997 H         1 <0>         0.0662
     43 H19         1.6380    1.6023   -2.3908 H         1 <0>         0.0677
     44 H20         2.4898    0.0942   -1.9147 H         1 <0>         0.0651
     45 H21         0.3462   -0.5949   -0.0568 H         1 <0>         0.4147
     46 H22        -3.1381    2.1117   -1.2266 H         1 <0>         0.1624
     47 H23        -5.6475    2.0282   -1.6224 H         1 <0>         0.1377
     48 H24        -7.7411    0.7453   -1.6680 H         1 <0>         0.1334
     49 H25        -7.7505   -1.6508   -1.1263 H         1 <0>         0.1339
     50 H26        -5.6667   -2.8061   -0.5298 H         1 <0>         0.1399
@<TRIPOS>BOND
     1    1    2 1
     2    1   28 1
     3    1   29 1
     4    1   30 1
     5    2    3 1
     6    2    4 1
     7    2    5 1
     8    3   31 1
     9    3   32 1
    10    3   33 1
    11    4   34 1
    12    4   35 1
    13    4   36 1
    14    5    6 1
    15    5   11 1
    16    5    7 1
    17    7    8 1
    18    7   37 1
    19    7   38 1
    20    8    9 1
    21    8   39 1
    22    8   40 1
    23    9   10 1
    24    9   41 1
    25    9   42 1
    26   10   11 1
    27   10   43 1
    28   10   44 1
    29   11   12 1
    30   11   13 1
    31   13   14 am
    32   13   45 1
    33   14   15 2
    34   14   16 1
    35   16   26 1
    36   16   17 2
    37   17   18 1
    38   17   46 1
    39   18   23 ar
    40   18   19 ar
    41   19   20 ar
    42   19   47 1
    43   20   21 ar
    44   20   48 1
    45   21   22 ar
    46   21   49 1
    47   22   23 ar
    48   22   50 1
    49   23   24 1
    50   24   25 2
    51   24   26 am
    52   26   27 1
@<TRIPOS>MOLECULE
ZINC41152592
   46    49     0     0     0
SMALL
USER_CHARGES

@<TRIPOS>ATOM
      1 C1          0.0776    1.3499    0.9382 C.ar      1 <0>        -0.1503
      2 C2          1.2715    2.0654    0.9390 C.ar      1 <0>        -0.0634
      3 C3          2.4660    1.4386    0.7416 C.ar      1 <0>        -0.1237
      4 C4          2.4946    0.0527    0.5346 C.ar      1 <0>         0.2274
      5 C5          1.2786   -0.6733    0.5342 C.ar      1 <0>        -0.2301
      6 C6          0.0699    0.0003    0.7396 C.ar      1 <0>        -0.0571
      7 C7          1.3321   -2.0738    0.3233 C.ar      1 <0>         0.5118
      8 N1          2.5171   -2.6362    0.1367 N.ar      1 <0>        -0.6232
      9 C8          3.6355   -1.9164    0.1447 C.ar      1 <0>         0.6038
     10 N2          3.6430   -0.6109    0.3363 N.ar      1 <0>        -0.5930
     11 N3          4.8424   -2.5641   -0.0559 N.pl3     1 <0>        -0.6366
     12 C9          6.0228   -1.8235   -0.1687 C.ar      1 <0>         0.2001
     13 C10         7.2182   -2.3415    0.3141 C.ar      1 <0>        -0.1618
     14 C11         8.3833   -1.6088    0.2013 C.ar      1 <0>        -0.0691
     15 C12         8.3622   -0.3596   -0.3912 C.ar      1 <0>        -0.1751
     16 C13         7.1728    0.1608   -0.8734 C.ar      1 <0>         0.1182
     17 C14         6.0038   -0.5716   -0.7686 C.ar      1 <0>        -0.1495
     18 F1          7.1551    1.3818   -1.4514 F         1 <0>        -0.1379
     19 N4          0.1807   -2.8315    0.3130 N.pl3     1 <0>        -0.6907
     20 C15         0.2575   -4.2779    0.0933 C.3       1 <0>         0.1513
     21 C16         0.2848   -4.5648   -1.4093 C.3       1 <0>        -0.1276
     22 C17         0.3650   -6.0753   -1.6387 C.3       1 <0>        -0.1161
     23 C18        -0.8560   -6.7519   -1.0124 C.3       1 <0>        -0.1233
     24 C19        -0.8832   -6.4650    0.4902 C.3       1 <0>        -0.1148
     25 C20        -0.9635   -4.9544    0.7196 C.3       1 <0>        -0.1291
     26 H1         -0.8550    1.8696    1.1014 H         1 <0>         0.1279
     27 H2          1.2512    3.1334    1.0980 H         1 <0>         0.1314
     28 H3          3.3846    2.0066    0.7444 H         1 <0>         0.1372
     29 H4         -0.8628   -0.5443    0.7410 H         1 <0>         0.1220
     30 H5          4.8691   -3.5317   -0.1181 H         1 <0>         0.4243
     31 H6          7.2362   -3.3168    0.7777 H         1 <0>         0.1308
     32 H7          9.3122   -2.0119    0.5767 H         1 <0>         0.1363
     33 H8          9.2748    0.2114   -0.4777 H         1 <0>         0.1348
     34 H9          5.0769   -0.1682   -1.1488 H         1 <0>         0.1479
     35 H10        -0.6805   -2.4070    0.4512 H         1 <0>         0.4118
     36 H11         1.1652   -4.6677    0.5541 H         1 <0>         0.0951
     37 H12        -0.6229   -4.1750   -1.8701 H         1 <0>         0.0618
     38 H13         1.1547   -4.0828   -1.8555 H         1 <0>         0.0682
     39 H14         0.3845   -6.2797   -2.7092 H         1 <0>         0.0652
     40 H15         1.2727   -6.4651   -1.1779 H         1 <0>         0.0652
     41 H16        -1.7636   -6.3621   -1.4733 H         1 <0>         0.0627
     42 H17        -0.7988   -7.8280   -1.1759 H         1 <0>         0.0652
     43 H18        -1.7531   -6.9470    0.9364 H         1 <0>         0.0685
     44 H19         0.0244   -6.8548    0.9510 H         1 <0>         0.0660
     45 H20        -0.9829   -4.7501    1.7901 H         1 <0>         0.0694
     46 H21        -1.8711   -4.5647    0.2588 H         1 <0>         0.0683
@<TRIPOS>BOND
     1    1    6 ar
     2    1    2 ar
     3    1   26 1
     4    2    3 ar
     5    2   27 1
     6    3    4 ar
     7    3   28 1
     8    4   10 ar
     9    4    5 ar
    10    5    6 ar
    11    5    7 ar
    12    6   29 1
    13    7    8 ar
    14    7   19 1
    15    8    9 ar
    16    9   10 ar
    17    9   11 1
    18   11   12 1
    19   11   30 1
    20   12   17 ar
    21   12   13 ar
    22   13   14 ar
    23   13   31 1
    24   14   15 ar
    25   14   32 1
    26   15   16 ar
    27   15   33 1
    28   16   17 ar
    29   16   18 1
    30   17   34 1
    31   19   20 1
    32   19   35 1
    33   20   25 1
    34   20   21 1
    35   20   36 1
    36   21   22 1
    37   21   37 1
    38   21   38 1
    39   22   23 1
    40   22   39 1
    41   22   40 1
    42   23   24 1
    43   23   41 1
    44   23   42 1
    45   24   25 1
    46   24   43 1
    47   24   44 1
    48   25   45 1
    49   25   46 1
@<TRIPOS>MOLECULE
ZINC65184711
   40    42     0     0     0
SMALL
USER_CHARGES

@<TRIPOS>ATOM
      1 C1          0.0431    1.2966    0.1240 C.3       1 <0>        -0.1176
      2 C2          0.7619   -0.0279    0.1257 C.ar      1 <0>        -0.1113
      3 C3          0.9935   -0.6904   -1.0640 C.ar      1 <0>        -0.1030
      4 C4          1.6529   -1.9056   -1.0634 C.ar      1 <0>        -0.1293
      5 C5          2.0829   -2.4619    0.1276 C.ar      1 <0>        -0.1071
      6 C6          1.8550   -1.8046    1.3204 C.ar      1 <0>        -0.1174
      7 C7          1.1974   -0.5810    1.3228 C.ar      1 <0>         0.1431
      8 N1          0.9697    0.0899    2.5284 N.am      1 <0>        -0.6674
      9 C8          0.7391   -0.6109    3.6564 C.2       1 <0>         0.6200
     10 O1          0.8108   -1.8263    3.6434 O.2       1 <0>        -0.5065
     11 C9          0.4029    0.0884    4.8955 C.2       1 <0>        -0.3388
     12 C10         0.1353   -0.4233    6.1578 C.2       1 <0>         0.2098
     13 N2         -0.1396    0.4502    7.0932 N.2       1 <0>        -0.5757
     14 C11        -0.1595    1.7474    6.8416 C.2       1 <0>         0.3187
     15 S1          0.2301    1.8383    5.2069 S.3       1 <0>         0.1535
     16 N3         -0.4293    2.7819    7.7134 N.pl3     1 <0>        -0.6048
     17 C12        -0.5224    4.0922    7.2358 C.ar      1 <0>         0.1818
     18 C13        -0.0927    5.1526    8.0242 C.ar      1 <0>        -0.1486
     19 C14        -0.1856    6.4464    7.5505 C.ar      1 <0>        -0.0545
     20 C15        -0.7058    6.6886    6.2925 C.ar      1 <0>        -0.1664
     21 C16        -1.1358    5.6348    5.5034 C.ar      1 <0>         0.1408
     22 C17        -1.0393    4.3361    5.9704 C.ar      1 <0>        -0.1998
     23 F1         -1.6444    5.8746    4.2750 F         1 <0>        -0.1287
     24 C18         0.1596   -1.9042    6.4362 C.3       1 <0>        -0.0932
     25 H1          0.7686    2.1036    0.0220 H         1 <0>         0.0721
     26 H2         -0.6566    1.3292   -0.7112 H         1 <0>         0.0735
     27 H3         -0.5028    1.4149    1.0600 H         1 <0>         0.0622
     28 H4          0.6587   -0.2589   -1.9958 H         1 <0>         0.1262
     29 H5          1.8324   -2.4218   -1.9949 H         1 <0>         0.1237
     30 H6          2.5971   -3.4117    0.1248 H         1 <0>         0.1261
     31 H7          2.1907   -2.2397    2.2502 H         1 <0>         0.1428
     32 H8          0.9777    1.0595    2.5529 H         1 <0>         0.4075
     33 H9         -0.5543    2.5999    8.6580 H         1 <0>         0.4315
     34 H10         0.3135    4.9650    9.0071 H         1 <0>         0.1405
     35 H11         0.1482    7.2703    8.1638 H         1 <0>         0.1456
     36 H12        -0.7772    7.7015    5.9246 H         1 <0>         0.1442
     37 H13        -1.3697    3.5136    5.3534 H         1 <0>         0.1432
     38 H14         1.1638   -2.2005    6.7395 H         1 <0>         0.0859
     39 H15        -0.5444   -2.1352    7.2356 H         1 <0>         0.0779
     40 H16        -0.1229   -2.4480    5.5348 H         1 <0>         0.0993
@<TRIPOS>BOND
     1    1    2 1
     2    1   25 1
     3    1   26 1
     4    1   27 1
     5    2    7 ar
     6    2    3 ar
     7    3    4 ar
     8    3   28 1
     9    4    5 ar
    10    4   29 1
    11    5    6 ar
    12    5   30 1
    13    6    7 ar
    14    6   31 1
    15    7    8 1
    16    8    9 am
    17    8   32 1
    18    9   10 2
    19    9   11 1
    20   11   15 1
    21   11   12 2
    22   12   13 1
    23   12   24 1
    24   13   14 2
    25   14   15 1
    26   14   16 1
    27   16   17 1
    28   16   33 1
    29   17   22 ar
    30   17   18 ar
    31   18   19 ar
    32   18   34 1
    33   19   20 ar
    34   19   35 1
    35   20   21 ar
    36   20   36 1
    37   21   22 ar
    38   21   23 1
    39   22   37 1
    40   24   38 1
    41   24   39 1
    42   24   40 1
@<TRIPOS>MOLECULE
ZINC11704094
   58    61     0     0     0
SMALL
USER_CHARGES
3-[2-[1-[2-(2-fluorophenyl)acetyl]-4-piperidyl]pyrazol-3-yl]-1-(o-tolyl)urea
@<TRIPOS>ATOM
      1 C1          0.1446    0.3020   -1.2412 C.3       1 <0>        -0.1158
      2 C2          0.0505    1.6501   -0.5744 C.ar      1 <0>        -0.1102
      3 C3         -1.1529    2.3280   -0.5521 C.ar      1 <0>        -0.1031
      4 C4         -1.2411    3.5628    0.0637 C.ar      1 <0>        -0.1272
      5 C5         -0.1232    4.1279    0.6500 C.ar      1 <0>        -0.1063
      6 C6          1.0839    3.4577    0.6265 C.ar      1 <0>        -0.1140
      7 C7          1.1747    2.2148    0.0133 C.ar      1 <0>         0.1548
      8 N1          2.3965    1.5332   -0.0126 N.am      1 <0>        -0.6753
      9 C8          3.5500    2.2217   -0.1216 C.2       1 <0>         0.7138
     10 O1          3.5353    3.4375   -0.1151 O.2       1 <0>        -0.5358
     11 N2          4.7198    1.5625   -0.2378 N.am      1 <0>        -0.6583
     12 C9          5.9137    2.2751   -0.3507 C.2       1 <0>         0.3179
     13 C10         6.0440    3.6299   -0.3573 C.2       1 <0>        -0.2733
     14 C11         7.4031    3.9284   -0.4881 C.2       1 <0>         0.0615
     15 N3          8.0666    2.8028   -0.5577 N.2       1 <0>        -0.2828
     16 N4          7.1526    1.7452   -0.4677 N.pl3     1 <0>        -0.3836
     17 C12         7.4802    0.3177   -0.4984 C.3       1 <0>         0.1689
     18 C13         8.4111   -0.0170    0.6693 C.3       1 <0>        -0.1437
     19 C14         8.7235   -1.5167    0.6545 C.3       1 <0>         0.1092
     20 N5          9.2593   -1.8748   -0.6659 N.am      1 <0>        -0.6172
     21 C15         8.4860   -1.5171   -1.8629 C.3       1 <0>         0.1155
     22 C16         8.1760   -0.0174   -1.8196 C.3       1 <0>        -0.1416
     23 C17        10.4375   -2.5197   -0.7770 C.2       1 <0>         0.5217
     24 O2         10.8689   -2.8102   -1.8726 O.2       1 <0>        -0.5237
     25 C18        11.2189   -2.8798    0.4602 C.3       1 <0>        -0.1015
     26 C19        12.4883   -3.5888    0.0640 C.ar      1 <0>        -0.1055
     27 C20        12.5307   -4.9702    0.0421 C.ar      1 <0>        -0.0792
     28 C21        13.6932   -5.6207   -0.3268 C.ar      1 <0>        -0.1288
     29 C22        14.8182   -4.8907   -0.6634 C.ar      1 <0>        -0.0882
     30 C23        14.7798   -3.5098   -0.6368 C.ar      1 <0>        -0.1528
     31 C24        13.6141   -2.8569   -0.2728 C.ar      1 <0>         0.1134
     32 F1         13.5756   -1.5067   -0.2460 F         1 <0>        -0.1373
     33 H1         -0.0686   -0.4797   -0.5121 H         1 <0>         0.0716
     34 H2         -0.5793    0.2476   -2.0544 H         1 <0>         0.0731
     35 H3          1.1496    0.1630   -1.6396 H         1 <0>         0.0612
     36 H4         -2.0267    1.8912   -1.0126 H         1 <0>         0.1269
     37 H5         -2.1839    4.0891    0.0831 H         1 <0>         0.1246
     38 H6         -0.1943    5.0946    1.1263 H         1 <0>         0.1269
     39 H7          1.9566    3.8996    1.0842 H         1 <0>         0.1422
     40 H8          2.4133    0.5652    0.0480 H         1 <0>         0.4078
     41 H9          4.7316    0.5926   -0.2430 H         1 <0>         0.4052
     42 H10         5.2403    4.3467   -0.2755 H         1 <0>         0.1744
     43 H11         7.8323    4.9187   -0.5257 H         1 <0>         0.1872
     44 H12         6.5644   -0.2670   -0.4118 H         1 <0>         0.0906
     45 H13         9.3375    0.5487    0.5698 H         1 <0>         0.0892
     46 H14         7.9242    0.2437    1.6090 H         1 <0>         0.0838
     47 H15         7.8111   -2.0821    0.8442 H         1 <0>         0.0763
     48 H16         9.4628   -1.7436    1.4226 H         1 <0>         0.0959
     49 H17         7.5542   -2.0825   -1.8784 H         1 <0>         0.0713
     50 H18         9.0685   -1.7442   -2.7557 H         1 <0>         0.1025
     51 H19         7.5218    0.2430   -2.6516 H         1 <0>         0.0819
     52 H20         9.1043    0.5488   -1.8957 H         1 <0>         0.0877
     53 H21        11.4664   -1.9722    1.0107 H         1 <0>         0.1071
     54 H22        10.6186   -3.5351    1.0913 H         1 <0>         0.1096
     55 H23        11.6540   -5.5415    0.3092 H         1 <0>         0.1306
     56 H24        13.7241   -6.7001   -0.3479 H         1 <0>         0.1310
     57 H25        15.7273   -5.4001   -0.9469 H         1 <0>         0.1337
     58 H26        15.6588   -2.9398   -0.8994 H         1 <0>         0.1363
@<TRIPOS>BOND
     1    1    2 1
     2    1   33 1
     3    1   34 1
     4    1   35 1
     5    2    7 ar
     6    2    3 ar
     7    3    4 ar
     8    3   36 1
     9    4    5 ar
    10    4   37 1
    11    5    6 ar
    12    5   38 1
    13    6    7 ar
    14    6   39 1
    15    7    8 1
    16    8    9 am
    17    8   40 1
    18    9   10 2
    19    9   11 am
    20   11   12 1
    21   11   41 1
    22   12   16 1
    23   12   13 2
    24   13   14 1
    25   13   42 1
    26   14   15 2
    27   14   43 1
    28   15   16 1
    29   16   17 1
    30   17   22 1
    31   17   18 1
    32   17   44 1
    33   18   19 1
    34   18   45 1
    35   18   46 1
    36   19   20 1
    37   19   47 1
    38   19   48 1
    39   20   21 1
    40   20   23 am
    41   21   22 1
    42   21   49 1
    43   21   50 1
    44   22   51 1
    45   22   52 1
    46   23   24 2
    47   23   25 1
    48   25   26 1
    49   25   53 1
    50   25   54 1
    51   26   31 ar
    52   26   27 ar
    53   27   28 ar
    54   27   55 1
    55   28   29 ar
    56   28   56 1
    57   29   30 ar
    58   29   57 1
    59   30   31 ar
    60   30   58 1
    61   31   32 1
@<TRIPOS>MOLECULE
ZINC20853826
   57    59     0     0     0
SMALL
USER_CHARGES
N-(tert-butylcarbamoyl)-2-[[(7S)-3-ethyl-7-methyl-4-oxo-5,6,7,8-tetrahydrobenzothiopheno[2,3-d]pyrimidin-2-yl]sulfanyl]acetamide
@<TRIPOS>ATOM
      1 C1         -0.0127    1.0858    0.0080 C.3       1 <0>        -0.1714
      2 C2         -0.7288    1.5792    1.2668 C.3       1 <0>         0.0772
      3 N1         -2.1032    1.0722    1.2772 N.am      1 <0>        -0.5087
      4 C3         -3.0804    1.8023    0.7088 C.2       1 <0>         0.5586
      5 O1         -2.8275    2.8761    0.1901 O.2       1 <0>        -0.5144
      6 C4         -4.4197    1.2984    0.7174 C.2       1 <0>        -0.2501
      7 C5         -5.6247    1.9150    0.1591 C.2       1 <0>        -0.0455
      8 C6         -6.7814    1.2372    0.3022 C.2       1 <0>        -0.1698
      9 S1         -6.3436   -0.2414    1.1764 S.3       1 <0>         0.1398
     10 C7         -4.6019    0.0555    1.3468 C.2       1 <0>         0.1163
     11 N2         -3.5944   -0.6134    1.8948 N.2       1 <0>        -0.5033
     12 C8         -2.3691   -0.1291    1.8680 C.2       1 <0>         0.3575
     13 S2         -1.0562   -1.0450    2.6045 S.3       1 <0>         0.1107
     14 C9         -1.9743   -2.4865    3.2004 C.3       1 <0>        -0.1610
     15 C10        -1.0271   -3.4370    3.8863 C.2       1 <0>         0.5403
     16 O2          0.1521   -3.1665    3.9645 O.2       1 <0>        -0.4557
     17 N3         -1.4909   -4.5877    4.4128 N.am      1 <0>        -0.6996
     18 C11        -0.6437   -5.4377    5.0262 C.2       1 <0>         0.6988
     19 O3          0.5384   -5.1666    5.1046 O.2       1 <0>        -0.5269
     20 N4         -1.1075   -6.5884    5.5527 N.am      1 <0>        -0.7400
     21 C12        -0.1867   -7.5124    6.2195 C.3       1 <0>         0.1890
     22 C13         0.4771   -6.8055    7.4030 C.3       1 <0>        -0.1691
     23 C14        -0.9627   -8.7309    6.7233 C.3       1 <0>        -0.1561
     24 C15         0.8874   -7.9657    5.2286 C.3       1 <0>        -0.1691
     25 C16        -8.1402    1.6492   -0.1763 C.3       1 <0>        -0.0320
     26 C17        -7.9717    2.7921   -1.1877 C.3       1 <0>        -0.0862
     27 H1         -7.5674    2.4033   -2.1339 H         1 <0>         0.0776
     28 C18        -7.0131    3.8312   -0.5988 C.3       1 <0>        -0.1175
     29 C19        -5.5941    3.2633   -0.5554 C.3       1 <0>        -0.0613
     30 C20        -9.3299    3.4422   -1.4586 C.3       1 <0>        -0.1494
     31 H2          1.0193    1.4665    0.0002 H         1 <0>         0.0863
     32 H3         -0.5447    1.4503   -0.8831 H         1 <0>         0.0668
     33 H4          0.0022   -0.0141    0.0019 H         1 <0>         0.0672
     34 H5         -0.1968    1.2147    2.1579 H         1 <0>         0.1008
     35 H6         -0.7437    2.6791    1.2729 H         1 <0>         0.1128
     36 H7         -2.7465   -2.1606    3.9128 H         1 <0>         0.1397
     37 H8         -2.4515   -2.9947    2.3495 H         1 <0>         0.1400
     38 H9         -2.5608   -4.8331    4.3419 H         1 <0>         0.4366
     39 H10        -2.1774   -6.8338    5.4818 H         1 <0>         0.4166
     40 H11         1.1685   -7.4993    7.9036 H         1 <0>         0.0653
     41 H12        -0.2951   -6.4795    8.1154 H         1 <0>         0.0541
     42 H13         1.0351   -5.9295    7.0408 H         1 <0>         0.0797
     43 H14        -0.2712   -9.4246    7.2239 H         1 <0>         0.0766
     44 H15        -1.4399   -9.2392    5.8724 H         1 <0>         0.0636
     45 H16        -1.7349   -8.4050    7.4357 H         1 <0>         0.0636
     46 H17         1.5788   -8.6595    5.7293 H         1 <0>         0.0653
     47 H18         1.4454   -7.0896    4.8665 H         1 <0>         0.0798
     48 H19         0.4102   -8.4739    4.3777 H         1 <0>         0.0541
     49 H20        -8.6355    0.7921   -0.6560 H         1 <0>         0.0841
     50 H21        -8.7426    1.9892    0.6790 H         1 <0>         0.0869
     51 H22        -7.0232    4.7357   -1.2247 H         1 <0>         0.0727
     52 H23        -7.3328    4.0881    0.4219 H         1 <0>         0.0667
     53 H24        -4.9336    3.9528   -0.0092 H         1 <0>         0.0872
     54 H25        -5.2159    3.1272   -1.5793 H         1 <0>         0.0790
     55 H26        -9.2067    4.2605   -2.1833 H         1 <0>         0.0600
     56 H27        -9.7385    3.8428   -0.5192 H         1 <0>         0.0575
     57 H28       -10.0209    2.6907   -1.8681 H         1 <0>         0.0582
@<TRIPOS>BOND
     1    1    2 1
     2    1   31 1
     3    1   32 1
     4    1   33 1
     5    2    3 1
     6    2   34 1
     7    2   35 1
     8    3   12 1
     9    3    4 am
    10    4    5 2
    11    4    6 1
    12    6   10 2
    13    6    7 1
    14    7   29 1
    15    7    8 2
    16    8    9 1
    17    8   25 1
    18    9   10 1
    19   10   11 1
    20   11   12 2
    21   12   13 1
    22   13   14 1
    23   14   15 1
    24   14   36 1
    25   14   37 1
    26   15   16 2
    27   15   17 am
    28   17   18 am
    29   17   38 1
    30   18   19 2
    31   18   20 am
    32   20   21 1
    33   20   39 1
    34   21   22 1
    35   21   23 1
    36   21   24 1
    37   22   40 1
    38   22   41 1
    39   22   42 1
    40   23   43 1
    41   23   44 1
    42   23   45 1
    43   24   46 1
    44   24   47 1
    45   24   48 1
    46   25   26 1
    47   25   49 1
    48   25   50 1
    49   26   27 1
    50   26   28 1
    51   26   30 1
    52   28   29 1
    53   28   51 1
    54   28   52 1
    55   29   53 1
    56   29   54 1
    57   30   55 1
    58   30   56 1
    59   30   57 1
@<TRIPOS>MOLECULE
ZINC39894562
   46    48     0     0     0
SMALL
USER_CHARGES

@<TRIPOS>ATOM
      1 C1          1.1031   -0.5312   -0.5568 C.ar      1 <0>        -0.0956
      2 C2          2.2937    0.1686   -0.5848 C.ar      1 <0>        -0.0965
      3 C3          2.3782    1.4165    0.0181 C.ar      1 <0>         0.1558
      4 C4          1.2645    1.9571    0.6477 C.ar      1 <0>        -0.0622
      5 C5          0.0771    1.2525    0.6723 C.ar      1 <0>        -0.0294
      6 C6         -0.0038    0.0098    0.0707 C.ar      1 <0>        -0.0735
      7 N1         -1.1102    1.8279    1.3430 N.pl3     1 <0>         0.0329
      8 O1         -1.0402    2.9142    1.8690 O.2       1 <0>        -0.1531
      9 O2         -2.1501    1.2116    1.3648 O.3       1 <0>        -0.1554
     10 N2          3.5830    2.1276   -0.0081 N.am      1 <0>        -0.6740
     11 C7          3.5701    3.4717   -0.1069 C.2       1 <0>         0.5278
     12 O3          2.5158    4.0710   -0.0888 O.2       1 <0>        -0.4937
     13 C8          4.8657    4.2299   -0.2400 C.3       1 <0>        -0.0851
     14 H1          5.3885    3.9067   -1.1401 H         1 <0>         0.1131
     15 C9          5.7429    3.9686    0.9863 C.3       1 <0>        -0.0859
     16 C10         6.9094    4.9126    0.9980 C.2       1 <0>        -0.1522
     17 C11         6.9699    5.9994    0.2975 C.2       1 <0>        -0.1502
     18 C12         5.8858    6.4628   -0.6310 C.3       1 <0>        -0.0855
     19 C13         4.5766    5.7340   -0.3237 C.3       1 <0>        -0.0884
     20 H2          4.1810    6.0847    0.6295 H         1 <0>         0.1125
     21 C14         3.5764    5.9974   -1.4197 C.2       1 <0>         0.5307
     22 O4          3.1353    5.0754   -2.0726 O.2       1 <0>        -0.5018
     23 N3          3.1721    7.2576   -1.6745 N.am      1 <0>        -0.6744
     24 C15         2.1727    7.4932   -2.6255 C.ar      1 <0>         0.1662
     25 C16         1.2628    8.5252   -2.4374 C.ar      1 <0>        -0.1401
     26 C17         0.2778    8.7557   -3.3777 C.ar      1 <0>        -0.0701
     27 C18         0.1972    7.9594   -4.5064 C.ar      1 <0>        -0.1070
     28 C19         1.1024    6.9304   -4.6963 C.ar      1 <0>        -0.0720
     29 C20         2.0926    6.6989   -3.7618 C.ar      1 <0>        -0.1159
     30 Br1        -1.1532    8.2777   -5.7914 Br        1 <0>        -0.0505
     31 H3          1.0354   -1.4999   -1.0295 H         1 <0>         0.1530
     32 H4          3.1581   -0.2547   -1.0749 H         1 <0>         0.1461
     33 H5          1.3272    2.9273    1.1180 H         1 <0>         0.1671
     34 H6         -0.9336   -0.5393    0.0912 H         1 <0>         0.1551
     35 H7          4.4275    1.6533    0.0449 H         1 <0>         0.4159
     36 H8          5.1520    4.1133    1.8907 H         1 <0>         0.0853
     37 H9          6.1089    2.9423    0.9567 H         1 <0>         0.0853
     38 H10         7.7510    4.6698    1.6298 H         1 <0>         0.1151
     39 H11         7.8555    6.6111    0.3872 H         1 <0>         0.1153
     40 H12         5.7402    7.5361   -0.5093 H         1 <0>         0.0862
     41 H13         6.1781    6.2543   -1.6602 H         1 <0>         0.0846
     42 H14         3.5738    8.0014   -1.1987 H         1 <0>         0.4118
     43 H15         1.3251    9.1468   -1.5565 H         1 <0>         0.1353
     44 H16        -0.4303    9.5580   -3.2318 H         1 <0>         0.1374
     45 H17         1.0370    6.3102   -5.5780 H         1 <0>         0.1348
     46 H18         2.8015    5.8982   -3.9126 H         1 <0>         0.1453
@<TRIPOS>BOND
     1    1    6 ar
     2    1    2 ar
     3    1   31 1
     4    2    3 ar
     5    2   32 1
     6    3    4 ar
     7    3   10 1
     8    4    5 ar
     9    4   33 1
    10    5    6 ar
    11    5    7 1
    12    6   34 1
    13    7    8 2
    14    7    9 1
    15   10   11 am
    16   10   35 1
    17   11   12 2
    18   11   13 1
    19   13   14 1
    20   13   19 1
    21   13   15 1
    22   15   16 1
    23   15   36 1
    24   15   37 1
    25   16   17 2
    26   16   38 1
    27   17   18 1
    28   17   39 1
    29   18   19 1
    30   18   40 1
    31   18   41 1
    32   19   20 1
    33   19   21 1
    34   21   22 2
    35   21   23 am
    36   23   24 1
    37   23   42 1
    38   24   29 ar
    39   24   25 ar
    40   25   26 ar
    41   25   43 1
    42   26   27 ar
    43   26   44 1
    44   27   28 ar
    45   27   30 1
    46   28   29 ar
    47   28   45 1
    48   29   46 1
@<TRIPOS>MOLECULE
ZINC20836760
   54    57     0     0     0
SMALL
USER_CHARGES

@<TRIPOS>ATOM
      1 C1         -0.0184    1.3751   -0.0180 C.ar      1 <0>        -0.1034
      2 C2          1.1675    2.0901   -0.0145 C.ar      1 <0>        -0.1014
      3 C3          2.3792    1.4287   -0.0201 C.ar      1 <0>        -0.0996
      4 C4          2.4096    0.0412   -0.0288 C.ar      1 <0>         0.0785
      5 C5          1.2137   -0.6798   -0.0318 C.ar      1 <0>         0.0822
      6 C6          0.0008   -0.0052   -0.0266 C.ar      1 <0>        -0.0975
      7 N1          1.5481   -2.0302   -0.0406 N.pl3     1 <0>        -0.5907
      8 H1          0.9218   -2.7709   -0.0447 H         1 <0>         0.4464
      9 C7          2.9052   -2.1333   -0.0429 C.2       1 <0>         0.6532
     10 N2          3.4476   -0.8851   -0.0358 N.pl3     1 <0>        -0.6098
     11 N3          3.5901   -3.2694   -0.0504 N.2       1 <0>        -0.6617
     12 C8          4.9258   -3.2462   -0.1648 C.2       1 <0>         0.5328
     13 O1          5.5195   -2.1805   -0.1655 O.2       1 <0>        -0.5856
     14 C9          5.6741   -4.5038   -0.2892 C.2       1 <0>        -0.1468
     15 C10         7.0151   -4.4805   -0.4041 C.2       1 <0>        -0.0546
     16 C11         7.7655   -5.7415   -0.5288 C.ar      1 <0>        -0.0101
     17 C12         7.0881   -6.9645   -0.5342 C.ar      1 <0>        -0.1267
     18 C13         7.7976   -8.1411   -0.6518 C.ar      1 <0>        -0.0202
     19 C14         9.1768   -8.1133   -0.7639 C.ar      1 <0>        -0.6748
     20 C15         9.8544   -6.9066   -0.7594 C.ar      1 <0>        -0.0210
     21 C16         9.1583   -5.7214   -0.6483 C.ar      1 <0>        -0.1201
     22 S1         10.0746   -9.6221   -0.9126 S.o2      1 <0>         2.6834
     23 O2         11.3933   -9.3568   -0.4547 O.2       1 <0>        -0.9547
     24 O3          9.2599  -10.6373   -0.3426 O.2       1 <0>        -0.9502
     25 N4         10.1944   -9.9633   -2.5287 N.pl3     1 <0>        -0.9873
     26 C17         9.1548  -10.7535   -3.1492 C.3       1 <0>         0.1239
     27 C18         9.5120  -12.2567   -3.0438 C.3       1 <0>        -0.1415
     28 C19        10.6336  -12.5792   -3.9393 C.3       1 <0>        -0.1191
     29 C20        11.9347  -11.8573   -3.6020 C.3       1 <0>        -0.1187
     30 C21        11.9325  -10.4942   -4.2488 C.3       1 <0>        -0.1248
     31 C22        11.3552   -9.4431   -3.2774 C.3       1 <0>         0.1100
     32 H2         -0.9625    1.8997   -0.0095 H         1 <0>         0.1395
     33 H3          1.1443    3.1698   -0.0078 H         1 <0>         0.1388
     34 H4          3.3019    1.9900   -0.0181 H         1 <0>         0.1352
     35 H5         -0.9264   -0.5591   -0.0289 H         1 <0>         0.1369
     36 H6          4.3950   -0.6771   -0.0356 H         1 <0>         0.4505
     37 H7          5.1485   -5.4472   -0.2885 H         1 <0>         0.1380
     38 H8          7.5408   -3.5370   -0.4047 H         1 <0>         0.1393
     39 H9          6.0119   -6.9877   -0.4460 H         1 <0>         0.1400
     40 H10         7.2758   -9.0866   -0.6561 H         1 <0>         0.1431
     41 H11        10.9307   -6.8929   -0.8470 H         1 <0>         0.1429
     42 H12         9.6881   -4.7802   -0.6494 H         1 <0>         0.1387
     43 H13         8.2075  -10.5692   -2.6424 H         1 <0>         0.0784
     44 H14         9.0646  -10.4746   -4.1990 H         1 <0>         0.0834
     45 H15         9.7920  -12.4899   -2.0165 H         1 <0>         0.0717
     46 H16         8.6442  -12.8542   -3.3230 H         1 <0>         0.0773
     47 H17        10.8127  -13.6535   -3.8965 H         1 <0>         0.0592
     48 H18        10.3481  -12.3199   -4.9588 H         1 <0>         0.0602
     49 H19        12.0195  -11.7468   -2.5209 H         1 <0>         0.0633
     50 H20        12.7792  -12.4361   -3.9761 H         1 <0>         0.0657
     51 H21        12.9531  -10.2187   -4.5147 H         1 <0>         0.0773
     52 H22        11.3213  -10.5230   -5.1508 H         1 <0>         0.0690
     53 H23        11.0463   -8.5645   -3.8437 H         1 <0>         0.0671
     54 H24        12.1310   -9.1511   -2.5696 H         1 <0>         0.0944
@<TRIPOS>BOND
     1    1    6 ar
     2    1    2 ar
     3    1   32 1
     4    2    3 ar
     5    2   33 1
     6    3    4 ar
     7    3   34 1
     8    4   10 1
     9    4    5 ar
    10    5    6 ar
    11    5    7 1
    12    6   35 1
    13    7    9 1
    14    7    8 1
    15    9   11 2
    16    9   10 1
    17   10   36 1
    18   11   12 1
    19   12   14 1
    20   12   13 2
    21   14   15 2
    22   14   37 1
    23   15   16 1
    24   15   38 1
    25   16   21 ar
    26   16   17 ar
    27   17   18 ar
    28   17   39 1
    29   18   19 ar
    30   18   40 1
    31   19   20 ar
    32   19   22 1
    33   20   21 ar
    34   20   41 1
    35   21   42 1
    36   22   23 2
    37   22   24 2
    38   22   25 1
    39   25   31 1
    40   25   26 1
    41   26   27 1
    42   26   43 1
    43   26   44 1
    44   27   28 1
    45   27   45 1
    46   27   46 1
    47   28   29 1
    48   28   47 1
    49   28   48 1
    50   29   30 1
    51   29   49 1
    52   29   50 1
    53   30   31 1
    54   30   51 1
    55   30   52 1
    56   31   53 1
    57   31   54 1
@<TRIPOS>MOLECULE
ZINC09210739
   55    59     0     0     0
SMALL
USER_CHARGES

@<TRIPOS>ATOM
      1 C1         -0.0187    1.5258    0.0104 C.3       1 <0>        -0.1487
      2 C2          0.0021   -0.0041    0.0020 C.3       1 <0>        -0.1177
      3 C3         -1.4333   -0.5336    0.0129 C.3       1 <0>        -0.0481
      4 C4         -1.4129   -2.0405    0.0046 C.2       1 <0>         0.1328
      5 C5         -1.4070   -2.8490   -1.1236 C.2       1 <0>        -0.2522
      6 C6         -1.3878   -4.1536   -0.7096 C.2       1 <0>         0.2884
      7 N1         -1.3812   -4.1523    0.6326 N.pl3     1 <0>        -0.4405
      8 H1         -1.3670   -4.9358    1.2043 H         1 <0>         0.4494
      9 N2         -1.3918   -2.8161    1.0624 N.2       1 <0>        -0.2542
     10 O1         -1.3789   -5.1950   -1.5780 O.3       1 <0>        -0.2275
     11 C7         -1.6572   -4.9408   -2.8726 C.2       1 <0>         0.4537
     12 C8         -1.6928   -3.6956   -3.4026 C.2       1 <0>        -0.2469
     13 C9         -1.4176   -2.4689   -2.5773 C.3       1 <0>         0.1263
     14 C10        -0.1321   -1.8199   -2.9790 C.ar      1 <0>        -0.1301
     15 C11         1.1667   -2.2811   -2.9738 C.ar      1 <0>        -0.0452
     16 C12         2.1494   -1.4044   -3.4204 C.ar      1 <0>        -0.1465
     17 C13         1.8354   -0.1307   -3.8488 C.ar      1 <0>        -0.0798
     18 C14         0.5317    0.3400   -3.8579 C.ar      1 <0>        -0.1401
     19 C15        -0.4646   -0.5302   -3.4125 C.ar      1 <0>         0.1605
     20 N3         -1.8301   -0.3277   -3.3174 N.am      1 <0>        -0.5447
     21 C16        -2.4708   -1.4146   -2.8374 C.2       1 <0>         0.5415
     22 O2         -3.6640   -1.5250   -2.6504 O.2       1 <0>        -0.4769
     23 C17        -2.5013    0.9193   -3.6927 C.3       1 <0>         0.1511
     24 C18        -2.8959    0.8597   -5.1459 C.ar      1 <0>        -0.1230
     25 C19        -2.0196    1.3028   -6.1188 C.ar      1 <0>        -0.0942
     26 C20        -2.3816    1.2481   -7.4518 C.ar      1 <0>        -0.1230
     27 C21        -3.6197    0.7498   -7.8119 C.ar      1 <0>        -0.0742
     28 C22        -4.4957    0.3058   -6.8390 C.ar      1 <0>        -0.1204
     29 C23        -4.1320    0.3566   -5.5063 C.ar      1 <0>        -0.0900
     30 C24        -4.0148    0.6911   -9.2650 C.3       1 <0>        -0.1173
     31 C25        -2.0018   -3.5418   -4.7924 C.1       1 <0>         0.2626
     32 N4         -2.2469   -3.4198   -5.8949 N.1       1 <0>        -0.4194
     33 N5         -1.9187   -6.0046   -3.6999 N.pl3     1 <0>        -0.8242
     34 H2          1.0039    1.9031    0.0027 H         1 <0>         0.0587
     35 H3         -0.5459    1.8868   -0.8726 H         1 <0>         0.0530
     36 H4         -0.5289    1.8773    0.9072 H         1 <0>         0.0555
     37 H5          0.5123   -0.3556   -0.8948 H         1 <0>         0.0715
     38 H6          0.5293   -0.3651    0.8851 H         1 <0>         0.0671
     39 H7         -1.9435   -0.1821    0.9097 H         1 <0>         0.0872
     40 H8         -1.9605   -0.1726   -0.8702 H         1 <0>         0.0796
     41 H9          1.4102   -3.2781   -2.6377 H         1 <0>         0.1298
     42 H10         3.1800   -1.7270   -3.4320 H         1 <0>         0.1248
     43 H11         2.6292    0.5189   -4.1869 H         1 <0>         0.1261
     44 H12         0.2966    1.3387   -4.1952 H         1 <0>         0.1316
     45 H13        -3.3926    1.0511   -3.0793 H         1 <0>         0.0995
     46 H14        -1.8239    1.7584   -3.5343 H         1 <0>         0.0972
     47 H15        -1.0523    1.6921   -5.8375 H         1 <0>         0.1208
     48 H16        -1.6972    1.5950   -8.2119 H         1 <0>         0.1223
     49 H17        -5.4631   -0.0831   -7.1203 H         1 <0>         0.1212
     50 H18        -4.8149    0.0062   -4.7465 H         1 <0>         0.1234
     51 H19        -3.7096   -0.2669   -9.6860 H         1 <0>         0.0716
     52 H20        -5.0959    0.7984   -9.3522 H         1 <0>         0.0669
     53 H21        -3.5244    1.4992   -9.8078 H         1 <0>         0.0672
     54 H22        -1.9001   -6.9084   -3.3483 H         1 <0>         0.4141
     55 H23        -2.1221   -5.8524   -4.6361 H         1 <0>         0.4296
@<TRIPOS>BOND
     1    1    2 1
     2    1   34 1
     3    1   35 1
     4    1   36 1
     5    2    3 1
     6    2   37 1
     7    2   38 1
     8    3    4 1
     9    3   39 1
    10    3   40 1
    11    4    9 2
    12    4    5 1
    13    5   13 1
    14    5    6 2
    15    6    7 1
    16    6   10 1
    17    7    8 1
    18    7    9 1
    19   10   11 1
    20   11   12 2
    21   11   33 1
    22   12   13 1
    23   12   31 1
    24   13   21 1
    25   13   14 1
    26   14   19 ar
    27   14   15 ar
    28   15   16 ar
    29   15   41 1
    30   16   17 ar
    31   16   42 1
    32   17   18 ar
    33   17   43 1
    34   18   19 ar
    35   18   44 1
    36   19   20 1
    37   20   21 am
    38   20   23 1
    39   21   22 2
    40   23   24 1
    41   23   45 1
    42   23   46 1
    43   24   29 ar
    44   24   25 ar
    45   25   26 ar
    46   25   47 1
    47   26   27 ar
    48   26   48 1
    49   27   28 ar
    50   27   30 1
    51   28   29 ar
    52   28   49 1
    53   29   50 1
    54   30   51 1
    55   30   52 1
    56   30   53 1
    57   31   32 3
    58   33   54 1
    59   33   55 1
@<TRIPOS>MOLECULE
ZINC09239978
   44    46     0     0     0
SMALL
USER_CHARGES
N-cyclohexyl-2-[4-(trifluoromethoxy)phenyl]amino-thiazole-4-carboxamide
@<TRIPOS>ATOM
      1 C1          4.5032    1.6823   -0.7490 C.ar      1 <0>        -0.1163
      2 C2          5.5622    2.5624   -0.8535 C.ar      1 <0>        -0.1517
      3 C3          6.8110    2.2066   -0.3656 C.ar      1 <0>         0.0901
      4 C4          6.9960    0.9685    0.2321 C.ar      1 <0>        -0.0881
      5 C5          5.9368    0.0893    0.3421 C.ar      1 <0>        -0.1034
      6 C6          4.6861    0.4449   -0.1457 C.ar      1 <0>         0.1432
      7 N1          3.6118   -0.4457   -0.0344 N.pl3     1 <0>        -0.6089
      8 C7          2.3270    0.0383    0.1504 C.2       1 <0>         0.3593
      9 N2          1.1850   -0.6191    0.1695 N.2       1 <0>        -0.5450
     10 C8          0.0261    0.0140    0.3628 C.2       1 <0>         0.0341
     11 C9          0.0328    1.3744    0.5443 C.2       1 <0>        -0.1562
     12 S1          1.7832    1.7180    0.4262 S.3       1 <0>         0.0420
     13 C10        -1.2404   -0.7355    0.3807 C.2       1 <0>         0.5913
     14 O1         -2.2916   -0.1493    0.5573 O.2       1 <0>        -0.5327
     15 N3         -1.2355   -2.0713    0.2015 N.am      1 <0>        -0.7090
     16 C11        -2.4962   -2.8173    0.2193 C.3       1 <0>         0.1439
     17 C12        -2.8656   -3.1600    1.6640 C.3       1 <0>        -0.1291
     18 C13        -4.1822   -3.9392    1.6826 C.3       1 <0>        -0.1174
     19 C14        -4.0223   -5.2301    0.8771 C.3       1 <0>        -0.1227
     20 C15        -3.6528   -4.8875   -0.5675 C.3       1 <0>        -0.1161
     21 C16        -2.3362   -4.1083   -0.5861 C.3       1 <0>        -0.1260
     22 O2          7.8546    3.0717   -0.4736 O.3       1 <0>        -0.3080
     23 C17         7.5927    4.3291   -1.1001 C.3       1 <0>         0.6036
     24 F1          6.6097    5.0142   -0.3779 F         1 <0>        -0.1635
     25 F2          8.7664    5.0899   -1.1274 F         1 <0>        -0.1285
     26 F3          7.1457    4.1142   -2.4082 F         1 <0>        -0.1639
     27 H1          3.5320    1.9579   -1.1326 H         1 <0>         0.1409
     28 H2          5.4191    3.5265   -1.3187 H         1 <0>         0.1422
     29 H3          7.9686    0.6922    0.6117 H         1 <0>         0.1500
     30 H4          6.0809   -0.8744    0.8078 H         1 <0>         0.1480
     31 H5          3.7670   -1.4018   -0.0868 H         1 <0>         0.4298
     32 H6         -0.7925    2.0515    0.7085 H         1 <0>         0.2099
     33 H7         -0.3973   -2.5386    0.0607 H         1 <0>         0.4088
     34 H8         -3.2849   -2.2086   -0.2228 H         1 <0>         0.0897
     35 H9         -2.0769   -3.7687    2.1061 H         1 <0>         0.0635
     36 H10        -2.9796   -2.2403    2.2378 H         1 <0>         0.0675
     37 H11        -4.9709   -3.3304    1.2404 H         1 <0>         0.0651
     38 H12        -4.4454   -4.1833    2.7118 H         1 <0>         0.0655
     39 H13        -4.9602   -5.7852    0.8904 H         1 <0>         0.0646
     40 H14        -3.2336   -5.8388    1.3193 H         1 <0>         0.0626
     41 H15        -4.4415   -4.2787   -1.0096 H         1 <0>         0.0658
     42 H16        -3.5389   -5.8072   -1.1413 H         1 <0>         0.0678
     43 H17        -2.0730   -3.8642   -1.6153 H         1 <0>         0.0689
     44 H18        -1.5475   -4.7170   -0.1440 H         1 <0>         0.0683
@<TRIPOS>BOND
     1    1    6 ar
     2    1    2 ar
     3    1   27 1
     4    2    3 ar
     5    2   28 1
     6    3    4 ar
     7    3   22 1
     8    4    5 ar
     9    4   29 1
    10    5    6 ar
    11    5   30 1
    12    6    7 1
    13    7    8 1
    14    7   31 1
    15    8   12 1
    16    8    9 2
    17    9   10 1
    18   10   11 2
    19   10   13 1
    20   11   12 1
    21   11   32 1
    22   13   14 2
    23   13   15 am
    24   15   16 1
    25   15   33 1
    26   16   21 1
    27   16   17 1
    28   16   34 1
    29   17   18 1
    30   17   35 1
    31   17   36 1
    32   18   19 1
    33   18   37 1
    34   18   38 1
    35   19   20 1
    36   19   39 1
    37   19   40 1
    38   20   21 1
    39   20   41 1
    40   20   42 1
    41   21   43 1
    42   21   44 1
    43   22   23 1
    44   23   24 1
    45   23   25 1
    46   23   26 1
@<TRIPOS>MOLECULE
ZINC16886280
   54    57     0     0     0
SMALL
USER_CHARGES
6-methyl-2-[(4-phenylthiazol-2-yl)amino]-5-[(2,4,6-trimethylphenyl)methyl]pyrimidin-4-ol
@<TRIPOS>ATOM
      1 C1         -7.5421    5.4659    4.7592 C.3       1 <0>        -0.1161
      2 C2         -6.5012    4.8896    3.8343 C.ar      1 <0>        -0.0779
      3 C3         -5.3922    5.6392    3.4892 C.ar      1 <0>        -0.1269
      4 C4         -4.4369    5.1103    2.6415 C.ar      1 <0>        -0.0536
      5 C5         -4.5904    3.8316    2.1393 C.ar      1 <0>        -0.0891
      6 C6         -5.7020    3.0840    2.4802 C.ar      1 <0>        -0.0737
      7 C7         -6.6551    3.6113    3.3314 C.ar      1 <0>        -0.1278
      8 C8         -5.8724    1.6923    1.9278 C.3       1 <0>        -0.1248
      9 C9         -3.5490    3.2550    1.2152 C.3       1 <0>        -0.0266
     10 C10        -2.7277    2.2335    1.9590 C.ar      1 <0>        -0.2289
     11 C11        -2.8051    0.8919    1.6340 C.ar      1 <0>         0.2368
     12 N1         -2.0660    0.0202    2.3029 N.ar      1 <0>        -0.5490
     13 C12        -1.2659    0.4164    3.2817 C.ar      1 <0>         0.5782
     14 N2         -1.1643    1.6923    3.6223 N.ar      1 <0>        -0.5791
     15 C13        -1.8726    2.6200    2.9898 C.ar      1 <0>         0.4164
     16 O1         -1.7655    3.9245    3.3410 O.3       1 <0>        -0.4567
     17 N3         -0.5124   -0.5269    3.9624 N.pl3     1 <0>        -0.5682
     18 C14         0.3396   -0.1292    4.9829 C.2       1 <0>         0.3340
     19 N4          1.1316   -0.8625    5.7433 N.2       1 <0>        -0.5414
     20 C15         1.8906   -0.3103    6.6790 C.2       1 <0>         0.1211
     21 C16         1.8439    1.0422    6.8686 C.2       1 <0>        -0.2549
     22 S1          0.6504    1.5107    5.6223 S.3       1 <0>         0.1372
     23 C17         2.7781   -1.1532    7.5166 C.ar      1 <0>        -0.0247
     24 C18         3.5748   -0.5685    8.4996 C.ar      1 <0>        -0.1045
     25 C19         4.3948   -1.3584    9.2795 C.ar      1 <0>        -0.1210
     26 C20         4.4354   -2.7266    9.0796 C.ar      1 <0>        -0.1154
     27 C21         3.6508   -3.3118    8.1021 C.ar      1 <0>        -0.1237
     28 C22         2.8228   -2.5325    7.3200 C.ar      1 <0>        -0.0876
     29 C23        -3.7155    0.4276    0.5265 C.3       1 <0>        -0.1337
     30 C24        -3.2279    5.9275    2.2653 C.3       1 <0>        -0.1166
     31 H1         -8.3013    5.9845    4.1737 H         1 <0>         0.0706
     32 H2         -8.0085    4.6612    5.3277 H         1 <0>         0.0651
     33 H3         -7.0694    6.1687    5.4453 H         1 <0>         0.0660
     34 H4         -5.2719    6.6380    3.8822 H         1 <0>         0.1198
     35 H5         -7.5214    3.0255    3.6012 H         1 <0>         0.1190
     36 H6         -5.0806    1.0493    2.3122 H         1 <0>         0.0692
     37 H7         -6.8414    1.2967    2.2321 H         1 <0>         0.0661
     38 H8         -5.8184    1.7242    0.8396 H         1 <0>         0.0778
     39 H9         -2.8987    4.0533    0.8574 H         1 <0>         0.0908
     40 H10        -4.0399    2.7785    0.3667 H         1 <0>         0.0913
     41 H11        -1.0267    4.3856    2.9207 H         1 <0>         0.4061
     42 H12        -0.5776   -1.4645    3.7228 H         1 <0>         0.4406
     43 H13         2.3798    1.6580    7.5757 H         1 <0>         0.1957
     44 H14         3.5472    0.5001    8.6535 H         1 <0>         0.1246
     45 H15         5.0092   -0.9070   10.0444 H         1 <0>         0.1255
     46 H16         5.0819   -3.3404    9.6893 H         1 <0>         0.1228
     47 H17         3.6865   -4.3805    7.9504 H         1 <0>         0.1240
     48 H18         2.2104   -2.9904    6.5574 H         1 <0>         0.1309
     49 H19        -3.1428    0.3239   -0.3952 H         1 <0>         0.0917
     50 H20        -4.1511   -0.5352    0.7938 H         1 <0>         0.0905
     51 H21        -4.5110    1.1581    0.3797 H         1 <0>         0.1035
     52 H22        -3.4792    6.5869    1.4345 H         1 <0>         0.0664
     53 H23        -2.9126    6.5250    3.1208 H         1 <0>         0.0680
     54 H24        -2.4174    5.2619    1.9686 H         1 <0>         0.0723
@<TRIPOS>BOND
     1    1    2 1
     2    1   31 1
     3    1   32 1
     4    1   33 1
     5    2    7 ar
     6    2    3 ar
     7    3    4 ar
     8    3   34 1
     9    4    5 ar
    10    4   30 1
    11    5    6 ar
    12    5    9 1
    13    6    7 ar
    14    6    8 1
    15    7   35 1
    16    8   36 1
    17    8   37 1
    18    8   38 1
    19    9   10 1
    20    9   39 1
    21    9   40 1
    22   10   15 ar
    23   10   11 ar
    24   11   12 ar
    25   11   29 1
    26   12   13 ar
    27   13   14 ar
    28   13   17 1
    29   14   15 ar
    30   15   16 1
    31   16   41 1
    32   17   18 1
    33   17   42 1
    34   18   22 1
    35   18   19 2
    36   19   20 1
    37   20   21 2
    38   20   23 1
    39   21   22 1
    40   21   43 1
    41   23   28 ar
    42   23   24 ar
    43   24   25 ar
    44   24   44 1
    45   25   26 ar
    46   25   45 1
    47   26   27 ar
    48   26   46 1
    49   27   28 ar
    50   27   47 1
    51   28   48 1
    52   29   49 1
    53   29   50 1
    54   29   51 1
    55   30   52 1
    56   30   53 1
    57   30   54 1
@<TRIPOS>MOLECULE
ZINC34946280
   63    65     0     0     0
SMALL
USER_CHARGES

@<TRIPOS>ATOM
      1 C1         -2.7007    0.6679   -0.5223 C.3       1 <0>        -0.1124
      2 C2         -2.0679   -0.6981   -0.4548 C.ar      1 <0>        -0.1128
      3 C3         -1.2744   -1.1431   -1.4962 C.ar      1 <0>        -0.0965
      4 C4         -0.6930   -2.3945   -1.4374 C.ar      1 <0>        -0.1559
      5 C5         -0.9061   -3.2061   -0.3310 C.ar      1 <0>         0.1591
      6 C6         -1.7035   -2.7564    0.7132 C.ar      1 <0>        -0.1596
      7 C7         -2.2774   -1.5017    0.6509 C.ar      1 <0>        -0.0982
      8 N1         -0.3188   -4.4749   -0.2686 N.am      1 <0>        -0.6752
      9 C8         -0.3841   -5.1924    0.8705 C.2       1 <0>         0.7112
     10 O1         -1.0416   -4.7851    1.8086 O.2       1 <0>        -0.5413
     11 N2          0.2794   -6.3613    0.9696 N.am      1 <0>        -0.6124
     12 C9          0.0605   -7.2320    2.1273 C.3       1 <0>         0.0290
     13 C10        -1.4178   -7.3487    2.3957 C.ar      1 <0>        -0.1347
     14 C11        -2.0225   -6.5080    3.3113 C.ar      1 <0>        -0.0486
     15 C12        -3.3785   -6.6151    3.5575 C.ar      1 <0>        -0.1226
     16 C13        -4.1299   -7.5626    2.8877 C.ar      1 <0>        -0.0558
     17 C14        -3.5254   -8.4027    1.9714 C.ar      1 <0>        -0.1299
     18 C15        -2.1701   -8.2927    1.7221 C.ar      1 <0>        -0.1156
     19 C16        -5.6080   -7.6800    3.1569 C.3       1 <0>        -0.0320
     20 C17        -6.2950   -6.3558    2.8172 C.3       1 <0>        -0.1386
     21 C18        -6.1968   -8.7965    2.2922 C.3       1 <0>        -0.1447
     22 C19        -5.8330   -8.0069    4.6345 C.3       1 <0>        -0.1387
     23 C20         1.2195   -6.7613   -0.0805 C.3       1 <0>         0.1254
     24 H1          1.0741   -6.1345   -0.9603 H         1 <0>         0.1166
     25 C21         0.9846   -8.2281   -0.4495 C.3       1 <0>        -0.1211
     26 C22         0.5781   -9.0315    0.7725 C.3       1 <0>        -0.2126
     27 C23         1.6754   -9.1619    1.8130 C.3       1 <0>        -0.1571
     28 C24         1.9888   -7.8057    2.4479 C.3       1 <0>        -0.1342
     29 N3          2.9839   -7.1134    1.6129 N.am      1 <0>        -0.7048
     30 C25         2.6394   -6.6098    0.4233 C.2       1 <0>         0.5093
     31 O2          3.4639   -6.0362   -0.2565 O.2       1 <0>        -0.5432
     32 H2         -2.0247    1.4035   -0.0863 H         1 <0>         0.0677
     33 H3         -2.8969    0.9265   -1.5628 H         1 <0>         0.0640
     34 H4         -3.6384    0.6618    0.0335 H         1 <0>         0.0644
     35 H5         -1.1094   -0.5115   -2.3566 H         1 <0>         0.1240
     36 H6         -0.0737   -2.7416   -2.2512 H         1 <0>         0.1224
     37 H7         -1.8713   -3.3854    1.5749 H         1 <0>         0.1843
     38 H8         -2.8941   -1.1496    1.4646 H         1 <0>         0.1221
     39 H9          0.1353   -4.8379   -1.0450 H         1 <0>         0.4056
     40 H10         0.4716   -8.2203    1.9215 H         1 <0>         0.2369
     41 H11         0.5558   -6.8070    3.0003 H         1 <0>         0.1229
     42 H12        -1.4355   -5.7678    3.8346 H         1 <0>         0.1251
     43 H13        -3.8509   -5.9588    4.2735 H         1 <0>         0.1189
     44 H14        -4.1123   -9.1431    1.4484 H         1 <0>         0.1249
     45 H15        -1.6985   -8.9466    1.0034 H         1 <0>         0.1276
     46 H16        -6.1348   -6.1229    1.7645 H         1 <0>         0.0556
     47 H17        -7.3641   -6.4407    3.0119 H         1 <0>         0.0582
     48 H18        -5.8756   -5.5604    3.4332 H         1 <0>         0.0575
     49 H19        -5.7073   -9.7399    2.5342 H         1 <0>         0.0587
     50 H20        -7.2659   -8.8814    2.4868 H         1 <0>         0.0582
     51 H21        -6.0365   -8.5636    1.2395 H         1 <0>         0.0579
     52 H22        -5.4136   -7.2115    5.2506 H         1 <0>         0.0574
     53 H23        -6.9021   -8.0919    4.8292 H         1 <0>         0.0584
     54 H24        -5.3436   -8.9503    4.8765 H         1 <0>         0.0564
     55 H25         0.1940   -8.2877   -1.1975 H         1 <0>         0.0894
     56 H26         1.9023   -8.6451   -0.8643 H         1 <0>         0.0840
     57 H27        -0.2839   -8.5502    1.2344 H         1 <0>         0.1513
     58 H28         0.2839  -10.0303    0.4501 H         1 <0>         0.0817
     59 H29         1.3524   -9.8551    2.5896 H         1 <0>         0.0886
     60 H30         2.5756   -9.5516    1.3376 H         1 <0>         0.0820
     61 H31         1.0785   -7.2085    2.5029 H         1 <0>         0.2596
     62 H32         2.3921   -7.9552    3.4494 H         1 <0>         0.0862
     63 H33         3.8962   -7.0193    1.9288 H         1 <0>         0.3961
@<TRIPOS>BOND
     1    1    2 1
     2    1   32 1
     3    1   33 1
     4    1   34 1
     5    2    7 ar
     6    2    3 ar
     7    3    4 ar
     8    3   35 1
     9    4    5 ar
    10    4   36 1
    11    5    6 ar
    12    5    8 1
    13    6    7 ar
    14    6   37 1
    15    7   38 1
    16    8    9 am
    17    8   39 1
    18    9   10 2
    19    9   11 am
    20   11   12 1
    21   11   23 1
    22   12   13 1
    23   12   40 1
    24   12   41 1
    25   13   18 ar
    26   13   14 ar
    27   14   15 ar
    28   14   42 1
    29   15   16 ar
    30   15   43 1
    31   16   17 ar
    32   16   19 1
    33   17   18 ar
    34   17   44 1
    35   18   45 1
    36   19   20 1
    37   19   21 1
    38   19   22 1
    39   20   46 1
    40   20   47 1
    41   20   48 1
    42   21   49 1
    43   21   50 1
    44   21   51 1
    45   22   52 1
    46   22   53 1
    47   22   54 1
    48   23   24 1
    49   23   30 1
    50   23   25 1
    51   25   26 1
    52   25   55 1
    53   25   56 1
    54   26   27 1
    55   26   57 1
    56   26   58 1
    57   27   28 1
    58   27   59 1
    59   27   60 1
    60   28   29 1
    61   28   61 1
    62   28   62 1
    63   29   30 am
    64   29   63 1
    65   30   31 2
@<TRIPOS>MOLECULE
ZINC40824207
   51    54     0     0     0
SMALL
USER_CHARGES

@<TRIPOS>ATOM
      1 C1         -1.2679    1.1817    0.1823 C.3       1 <0>        -0.1172
      2 C2         -0.5858   -0.1585    0.0848 C.ar      1 <0>        -0.1083
      3 C3         -0.5709   -0.8410   -1.1160 C.ar      1 <0>        -0.1037
      4 C4          0.0547   -2.0707   -1.2063 C.ar      1 <0>        -0.1273
      5 C5          0.6670   -2.6218   -0.0953 C.ar      1 <0>        -0.1072
      6 C6          0.6553   -1.9450    1.1083 C.ar      1 <0>        -0.1158
      7 C7          0.0334   -0.7062    1.2007 C.ar      1 <0>         0.1394
      8 N1          0.0251   -0.0154    2.4164 N.am      1 <0>        -0.6632
      9 C8         -0.0564   -0.6952    3.5773 C.2       1 <0>         0.6095
     10 O1         -0.0400   -1.9121    3.5723 O.2       1 <0>        -0.4945
     11 C9         -0.1648    0.0316    4.8468 C.2       1 <0>        -0.1061
     12 C10        -0.2484   -0.5365    6.0878 C.2       1 <0>        -0.0269
     13 C11        -0.3355    0.5232    6.9985 C.2       1 <0>        -0.1469
     14 C12        -0.3031    1.6921    6.2762 C.2       1 <0>         0.0618
     15 O2         -0.1929    1.3764    4.9872 O.3       1 <0>        -0.1480
     16 C13        -0.3809    3.0548    6.9167 C.3       1 <0>        -0.0435
     17 C14        -0.9978    2.9265    8.3120 C.3       1 <0>        -0.1092
     18 C15        -0.2496    1.8758    9.1392 C.3       1 <0>        -0.1138
     19 C16        -0.4433    0.5204    8.4751 C.2       1 <0>         0.1444
     20 N2         -0.6856   -0.5588    9.1534 N.2       1 <0>        -0.2213
     21 N3         -0.7770   -0.5026   10.5503 N.pl3     1 <0>        -0.5828
     22 C17        -1.0375   -1.6629   11.2795 C.ar      1 <0>         0.2130
     23 C18        -1.2010   -2.8768   10.6224 C.ar      1 <0>        -0.1598
     24 C19        -1.4582   -4.0233   11.3476 C.ar      1 <0>        -0.0826
     25 C20        -1.5534   -3.9649   12.7261 C.ar      1 <0>        -0.1642
     26 C21        -1.3918   -2.7588   13.3834 C.ar      1 <0>        -0.0792
     27 C22        -1.1286   -1.6091   12.6655 C.ar      1 <0>        -0.1840
     28 C23        -0.2477   -2.0086    6.4105 C.3       1 <0>        -0.0998
     29 H1         -0.5538    1.9708   -0.0530 H         1 <0>         0.0722
     30 H2         -2.0971    1.2196   -0.5241 H         1 <0>         0.0730
     31 H3         -1.6462    1.3240    1.1946 H         1 <0>         0.0633
     32 H4         -1.0487   -0.4138   -1.9852 H         1 <0>         0.1268
     33 H5          0.0650   -2.6023   -2.1463 H         1 <0>         0.1244
     34 H6          1.1545   -3.5827   -0.1691 H         1 <0>         0.1267
     35 H7          1.1330   -2.3762    1.9756 H         1 <0>         0.1404
     36 H8          0.0780    0.9532    2.4242 H         1 <0>         0.4145
     37 H9          0.6213    3.4753    6.9995 H         1 <0>         0.1021
     38 H10        -1.0006    3.7096    6.3040 H         1 <0>         0.0990
     39 H11        -0.9419    3.8896    8.8194 H         1 <0>         0.0919
     40 H12        -2.0428    2.6314    8.2170 H         1 <0>         0.0755
     41 H13         0.8119    2.1210    9.1715 H         1 <0>         0.0947
     42 H14        -0.6525    1.8500   10.1517 H         1 <0>         0.0777
     43 H15        -0.6592    0.3432   11.0103 H         1 <0>         0.3885
     44 H16        -1.1272   -2.9232    9.5459 H         1 <0>         0.1310
     45 H17        -1.5857   -4.9668   10.8377 H         1 <0>         0.1238
     46 H18        -1.7547   -4.8633   13.2907 H         1 <0>         0.1208
     47 H19        -1.4675   -2.7169   14.4600 H         1 <0>         0.1244
     48 H20        -0.9978   -0.6685   13.1798 H         1 <0>         0.1203
     49 H21         0.7771   -2.3460    6.5658 H         1 <0>         0.0773
     50 H22        -0.8286   -2.1823    7.3163 H         1 <0>         0.0818
     51 H23        -0.6910   -2.5622    5.5828 H         1 <0>         0.0873
@<TRIPOS>BOND
     1    1    2 1
     2    1   29 1
     3    1   30 1
     4    1   31 1
     5    2    7 ar
     6    2    3 ar
     7    3    4 ar
     8    3   32 1
     9    4    5 ar
    10    4   33 1
    11    5    6 ar
    12    5   34 1
    13    6    7 ar
    14    6   35 1
    15    7    8 1
    16    8    9 am
    17    8   36 1
    18    9   10 2
    19    9   11 1
    20   11   15 1
    21   11   12 2
    22   12   13 1
    23   12   28 1
    24   13   19 1
    25   13   14 2
    26   14   15 1
    27   14   16 1
    28   16   17 1
    29   16   37 1
    30   16   38 1
    31   17   18 1
    32   17   39 1
    33   17   40 1
    34   18   19 1
    35   18   41 1
    36   18   42 1
    37   19   20 2
    38   20   21 1
    39   21   22 1
    40   21   43 1
    41   22   27 ar
    42   22   23 ar
    43   23   24 ar
    44   23   44 1
    45   24   25 ar
    46   24   45 1
    47   25   26 ar
    48   25   46 1
    49   26   27 ar
    50   26   47 1
    51   27   48 1
    52   28   49 1
    53   28   50 1
    54   28   51 1
@<TRIPOS>MOLECULE
ZINC15947624
   49    53     0     0     0
SMALL
USER_CHARGES

@<TRIPOS>ATOM
      1 C1          0.2115    1.5726    0.7335 C.3       1 <0>        -0.1474
      2 C2          0.1933    0.0480    0.6060 C.3       1 <0>        -0.0862
      3 H1         -0.8379   -0.3049    0.5916 H         1 <0>         0.0753
      4 C3          0.8956   -0.3668   -0.6901 C.3       1 <0>        -0.1153
      5 C4          0.6693   -1.8573   -0.9510 C.3       1 <0>        -0.0574
      6 C5          1.0608   -2.6370    0.2964 C.2       1 <0>        -0.0307
      7 C6          1.1684   -2.0254    1.4981 C.2       1 <0>        -0.2181
      8 S1          1.6371   -3.3138    2.6209 S.3       1 <0>         0.1992
      9 C7          1.6852   -4.5923    1.5663 C.2       1 <0>         0.0977
     10 C8          1.3474   -4.0597    0.3166 C.2       1 <0>        -0.2528
     11 C9          1.3249   -4.9903   -0.8413 C.2       1 <0>         0.4664
     12 N1          1.3722   -6.2706   -0.5906 N.2       1 <0>        -0.6448
     13 C10         1.3810   -6.8509    0.7463 C.3       1 <0>         0.3991
     14 H2          1.9624   -7.7728    0.7301 H         1 <0>         0.1217
     15 N2          1.9686   -5.9289    1.7353 N.pl3     1 <0>        -0.7065
     16 C11        -0.0345   -7.1696    1.1535 C.ar      1 <0>        -0.1161
     17 C12        -0.3958   -7.1242    2.4874 C.ar      1 <0>        -0.0843
     18 C13        -1.6926   -7.4163    2.8633 C.ar      1 <0>        -0.1235
     19 C14        -2.6329   -7.7550    1.9010 C.ar      1 <0>         0.0920
     20 C15        -2.2679   -7.7994    0.5632 C.ar      1 <0>        -0.1169
     21 C16        -0.9711   -7.5014    0.1920 C.ar      1 <0>        -0.0732
     22 O1         -3.9093   -8.0433    2.2683 O.3       1 <0>        -0.2911
     23 C17        -4.6776   -7.0361    2.7324 C.2       1 <0>         0.5535
     24 O2         -4.2593   -5.8940    2.7143 O.2       1 <0>        -0.4754
     25 C18        -6.0146   -7.3177    3.2577 C.2       1 <0>        -0.2607
     26 C19        -6.9561   -6.4370    3.7711 C.2       1 <0>        -0.0500
     27 C20        -8.1351   -7.0028    4.1916 C.2       1 <0>        -0.1911
     28 C21        -8.2987   -8.3448    4.0816 C.2       1 <0>        -0.2180
     29 S2         -6.8609   -8.8805    3.3974 S.3       1 <0>         0.2616
     30 O3          1.2574   -4.5271   -2.1109 O.3       1 <0>        -0.4527
     31 C22         0.9344   -0.5769    1.7971 C.3       1 <0>        -0.0250
     32 H3          1.2433    1.9237    0.7477 H         1 <0>         0.0568
     33 H4         -0.3110    2.0145   -0.1149 H         1 <0>         0.0583
     34 H5         -0.2848    1.8658    1.6587 H         1 <0>         0.0568
     35 H6          0.4924    0.2116   -1.5214 H         1 <0>         0.0699
     36 H7          1.9645   -0.1731   -0.6007 H         1 <0>         0.0659
     37 H8         -0.3824   -2.0333   -1.1770 H         1 <0>         0.0765
     38 H9          1.2847   -2.1789   -1.7912 H         1 <0>         0.0857
     39 H10         2.5243   -6.2463    2.4642 H         1 <0>         0.4162
     40 H11         0.3366   -6.8605    3.2360 H         1 <0>         0.1272
     41 H12        -1.9741   -7.3814    3.9054 H         1 <0>         0.1284
     42 H13        -2.9980   -8.0631   -0.1877 H         1 <0>         0.1345
     43 H14        -0.6875   -7.5318   -0.8497 H         1 <0>         0.1405
     44 H15        -6.7734   -5.3746    3.8363 H         1 <0>         0.1532
     45 H16        -8.9208   -6.3876    4.6045 H         1 <0>         0.1440
     46 H17        -9.1585   -8.9338    4.3647 H         1 <0>         0.1942
     47 H18         1.2489   -5.2222   -2.7832 H         1 <0>         0.4060
     48 H19         1.8908   -0.0737    1.9395 H         1 <0>         0.0793
     49 H20         0.3295   -0.4788    2.6985 H         1 <0>         0.0774
@<TRIPOS>BOND
     1    1    2 1
     2    1   32 1
     3    1   33 1
     4    1   34 1
     5    2    3 1
     6    2   31 1
     7    2    4 1
     8    4    5 1
     9    4   35 1
    10    4   36 1
    11    5    6 1
    12    5   37 1
    13    5   38 1
    14    6   10 1
    15    6    7 2
    16    7    8 1
    17    7   31 1
    18    8    9 1
    19    9   15 1
    20    9   10 2
    21   10   11 1
    22   11   12 2
    23   11   30 1
    24   12   13 1
    25   13   14 1
    26   13   15 1
    27   13   16 1
    28   15   39 1
    29   16   21 ar
    30   16   17 ar
    31   17   18 ar
    32   17   40 1
    33   18   19 ar
    34   18   41 1
    35   19   20 ar
    36   19   22 1
    37   20   21 ar
    38   20   42 1
    39   21   43 1
    40   22   23 1
    41   23   24 2
    42   23   25 1
    43   25   29 1
    44   25   26 2
    45   26   27 1
    46   26   44 1
    47   27   28 2
    48   27   45 1
    49   28   29 1
    50   28   46 1
    51   30   47 1
    52   31   48 1
    53   31   49 1
@<TRIPOS>MOLECULE
ZINC12028678
   61    65     0     0     0
SMALL
USER_CHARGES
2-[3-[[(1S)-1-(4-fluoro-3-methoxy-phenyl)-1,3,4,9-tetrahydropyrido[3,4-b]indol-2-yl]methyl]phenoxy]ethanol
@<TRIPOS>ATOM
      1 C1          8.5338    4.1514   -0.4802 C.3       1 <0>         0.0214
      2 O1          8.3739    4.3150    0.9304 O.3       1 <0>        -0.2970
      3 C2          7.1129    4.5384    1.3868 C.ar      1 <0>         0.1188
      4 C3          6.0522    4.5989    0.4958 C.ar      1 <0>        -0.1639
      5 C4          4.7714    4.8265    0.9618 C.ar      1 <0>        -0.1146
      6 C5          4.5465    4.9998    2.3150 C.ar      1 <0>        -0.1254
      7 C6          5.6005    4.9347    3.2075 C.ar      1 <0>        -0.0976
      8 C7          6.8848    4.7071    2.7466 C.ar      1 <0>         0.1005
      9 F1          7.9156    4.6484    3.6179 F         1 <0>        -0.1144
     10 C8          3.6189    4.8922   -0.0069 C.3       1 <0>         0.1625
     11 H1          3.9924    5.1041   -1.0087 H         1 <0>         0.1594
     12 C9          2.8792    3.5743   -0.0078 C.2       1 <0>         0.0379
     13 C10         1.5332    3.4887    0.0025 C.2       1 <0>        -0.1590
     14 C11         1.1851    2.0740    0.0019 C.ar      1 <0>        -0.0950
     15 C12        -0.0164    1.3616    0.0095 C.ar      1 <0>        -0.0692
     16 C13         0.0021   -0.0041    0.0020 C.ar      1 <0>        -0.1313
     17 C14         1.2071   -0.6933   -0.0123 C.ar      1 <0>        -0.0798
     18 C15         2.4045   -0.0126   -0.0192 C.ar      1 <0>        -0.1277
     19 C16         2.4102    1.3782   -0.0122 C.ar      1 <0>         0.1120
     20 N1          3.4166    2.3204   -0.0164 N.pl3     1 <0>        -0.5637
     21 H2          4.3659    2.1214   -0.0240 H         1 <0>         0.4203
     22 C17         0.6178    4.6862    0.0115 C.3       1 <0>        -0.0698
     23 C18         1.4464    5.9160   -0.3863 C.3       1 <0>        -0.0041
     24 C19         3.3183    7.2726    0.3354 C.3       1 <0>         0.0440
     25 C20         3.7891    7.5280   -1.0733 C.ar      1 <0>        -0.1103
     26 C21         2.9461    8.1393   -1.9833 C.ar      1 <0>        -0.1332
     27 C22         3.3753    8.3758   -3.2759 C.ar      1 <0>        -0.0678
     28 C23         4.6481    8.0017   -3.6618 C.ar      1 <0>        -0.1801
     29 C24         5.4954    7.3879   -2.7511 C.ar      1 <0>         0.1414
     30 C25         5.0641    7.1565   -1.4527 C.ar      1 <0>        -0.1417
     31 O2          6.7480    7.0195   -3.1280 O.3       1 <0>        -0.3037
     32 C26         7.1265    7.2947   -4.4782 C.3       1 <0>         0.0565
     33 C27         8.5591    6.8124   -4.7148 C.3       1 <0>         0.0755
     34 O3          8.6093    5.3897   -4.5906 O.3       1 <0>        -0.5711
     35 H3          9.5856    3.9802   -0.7092 H         1 <0>         0.1133
     36 H4          7.9452    3.2976   -0.8159 H         1 <0>         0.0603
     37 H5          8.1925    5.0516   -0.9913 H         1 <0>         0.0676
     38 H6          6.2269    4.4678   -0.5618 H         1 <0>         0.1506
     39 H7          3.5451    5.1824    2.6759 H         1 <0>         0.1328
     40 H8          5.4216    5.0660    4.2644 H         1 <0>         0.1587
     41 H9         -0.9584    1.8898    0.0169 H         1 <0>         0.1274
     42 H10        -0.9284   -0.5523    0.0076 H         1 <0>         0.1318
     43 H11         1.2057   -1.7733   -0.0184 H         1 <0>         0.1349
     44 H12         3.3368   -0.5576   -0.0297 H         1 <0>         0.1269
     45 H13        -0.1901    4.5383   -0.7051 H         1 <0>         0.1221
     46 H14         0.2039    4.8266    1.0100 H         1 <0>         0.1011
     47 H15         1.6959    5.8589   -1.4459 H         1 <0>         0.1352
     48 H16         0.8682    6.8205   -0.1973 H         1 <0>         0.1406
     49 H17         2.5972    8.0382    0.6218 H         1 <0>         0.1475
     50 H18         4.1703    7.3038    1.0145 H         1 <0>         0.1383
     51 H19         1.9509    8.4328   -1.6835 H         1 <0>         0.1354
     52 H20         2.7152    8.8537   -3.9847 H         1 <0>         0.1401
     53 H21         4.9832    8.1873   -4.6716 H         1 <0>         0.1392
     54 H22         5.7236    6.6831   -0.7404 H         1 <0>         0.1376
     55 H23         6.4513    6.7750   -5.1580 H         1 <0>         0.0759
     56 H24         7.0698    8.3679   -4.6599 H         1 <0>         0.0836
     57 H25         8.8791    7.1013   -5.7159 H         1 <0>         0.0763
     58 H26         9.2214    7.2652   -3.9768 H         1 <0>         0.0613
     59 H27         9.4895    5.0137   -4.7284 H         1 <0>         0.3884
     60 N2          2.6759    5.9465    0.4382 N.4       1 <0>        -0.3864
     61 H28         2.4230    5.7737    1.4182 H         1 <0>         0.4301
@<TRIPOS>BOND
     1    1    2 1
     2    1   35 1
     3    1   36 1
     4    1   37 1
     5    2    3 1
     6    3    8 ar
     7    3    4 ar
     8    4    5 ar
     9    4   38 1
    10    5    6 ar
    11    5   10 1
    12    6    7 ar
    13    6   39 1
    14    7    8 ar
    15    7   40 1
    16    8    9 1
    17   10   11 1
    18   10   12 1
    19   10   60 1
    20   12   20 1
    21   12   13 2
    22   13   14 1
    23   13   22 1
    24   14   19 ar
    25   14   15 ar
    26   15   16 ar
    27   15   41 1
    28   16   17 ar
    29   16   42 1
    30   17   18 ar
    31   17   43 1
    32   18   19 ar
    33   18   44 1
    34   19   20 1
    35   20   21 1
    36   22   23 1
    37   22   45 1
    38   22   46 1
    39   23   47 1
    40   23   48 1
    41   23   60 1
    42   24   25 1
    43   24   49 1
    44   24   50 1
    45   24   60 1
    46   25   30 ar
    47   25   26 ar
    48   26   27 ar
    49   26   51 1
    50   27   28 ar
    51   27   52 1
    52   28   29 ar
    53   28   53 1
    54   29   30 ar
    55   29   31 1
    56   30   54 1
    57   31   32 1
    58   32   33 1
    59   32   55 1
    60   32   56 1
    61   33   34 1
    62   33   57 1
    63   33   58 1
    64   34   59 1
    65   60   61 1
@<TRIPOS>MOLECULE
ZINC13564683
   56    59     0     0     0
SMALL
USER_CHARGES
3-tert-butyl-1-(4-chlorophenyl)-5-[[(4-chlorophenyl)methylamino]methyl]-7H-pyrazolo[4,5-e]pyridin-6-one
@<TRIPOS>ATOM
      1 C1          5.2414    1.3180   -1.2907 C.3       1 <0>        -0.1423
      2 C2          4.8759    2.1093   -0.0333 C.3       1 <0>         0.0049
      3 C3          5.6275    3.4419   -0.0329 C.3       1 <0>        -0.1453
      4 C4          5.2656    1.3036    1.2076 C.3       1 <0>        -0.1402
      5 C5          3.3916    2.3697   -0.0174 C.2       1 <0>         0.1703
      6 C6          2.3773    1.3834   -0.0133 C.2       1 <0>        -0.2710
      7 C7          2.3975   -0.0301   -0.0206 C.2       1 <0>         0.1190
      8 C8          1.2198   -0.7085   -0.0130 C.2       1 <0>        -0.3303
      9 C9          0.0021   -0.0041    0.0020 C.2       1 <0>         0.5627
     10 O1         -1.0504   -0.6207    0.0088 O.2       1 <0>        -0.5312
     11 N1         -0.0162    1.3421    0.0094 N.am      1 <0>        -0.6019
     12 H1         -0.8651    1.8113    0.0160 H         1 <0>         0.4229
     13 C10         1.1523    2.0544    0.0021 C.2       1 <0>         0.3763
     14 N2          1.4315    3.3841    0.0061 N.pl3     1 <0>        -0.3176
     15 N3          2.8224    3.5420   -0.0059 N.2       1 <0>        -0.2388
     16 C11         0.4880    4.4206    0.0207 C.ar      1 <0>         0.1294
     17 C12        -0.7123    4.2781   -0.6625 C.ar      1 <0>        -0.1254
     18 C13        -1.6427    5.2986   -0.6418 C.ar      1 <0>        -0.0809
     19 C14        -1.3747    6.4669    0.0498 C.ar      1 <0>        -0.0265
     20 C15        -0.1767    6.6136    0.7268 C.ar      1 <0>        -0.0834
     21 C16         0.7545    5.5938    0.7139 C.ar      1 <0>        -0.0822
     22 Cl1        -2.5430    7.7508    0.0675 Cl        1 <0>        -0.0398
     23 C17         1.2183   -2.2154   -0.0201 C.3       1 <0>         0.0796
     24 C18         1.1060   -4.1801    1.3906 C.3       1 <0>         0.0500
     25 C19         0.9943   -4.6510    2.8178 C.ar      1 <0>        -0.1650
     26 C20         2.1369   -4.8739    3.5632 C.ar      1 <0>        -0.0787
     27 C21         2.0350   -5.3003    4.8740 C.ar      1 <0>        -0.1090
     28 C22         0.7893   -5.5149    5.4365 C.ar      1 <0>        -0.0062
     29 C23        -0.3538   -5.2971    4.6881 C.ar      1 <0>        -0.1081
     30 C24        -0.2507   -4.8653    3.3792 C.ar      1 <0>        -0.0774
     31 Cl2         0.6607   -6.0568    7.0807 Cl        1 <0>        -0.0389
     32 H2          4.9638    1.8920   -2.1748 H         1 <0>         0.0644
     33 H3          6.3150    1.1296   -1.3022 H         1 <0>         0.0778
     34 H4          4.7059    0.3686   -1.2910 H         1 <0>         0.0564
     35 H5          5.3671    4.0057    0.8629 H         1 <0>         0.0645
     36 H6          6.7010    3.2536   -0.0444 H         1 <0>         0.0710
     37 H7          5.3498    4.0159   -0.9169 H         1 <0>         0.0651
     38 H8          4.7301    0.3541    1.2073 H         1 <0>         0.0541
     39 H9          6.3391    1.1152    1.1961 H         1 <0>         0.0779
     40 H10         5.0052    1.8673    2.1034 H         1 <0>         0.0636
     41 H11         3.3363   -0.5638   -0.0325 H         1 <0>         0.1562
     42 H12        -0.9200    3.3683   -1.2061 H         1 <0>         0.1329
     43 H13        -2.5783    5.1864   -1.1695 H         1 <0>         0.1526
     44 H14         0.0303    7.5265    1.2656 H         1 <0>         0.1534
     45 H15         1.6894    5.7089    1.2421 H         1 <0>         0.1503
     46 H16         0.3706   -2.5752   -0.6031 H         1 <0>         0.1438
     47 H17         2.1452   -2.5776   -0.4650 H         1 <0>         0.1410
     48 H18         0.2574   -4.5535    0.8173 H         1 <0>         0.1407
     49 H19         2.0320   -4.5559    0.9554 H         1 <0>         0.1407
     50 H20         3.1094   -4.7105    3.1227 H         1 <0>         0.1421
     51 H21         2.9277   -5.4701    5.4577 H         1 <0>         0.1466
     52 H22        -1.3264   -5.4642    5.1267 H         1 <0>         0.1466
     53 H23        -1.1430   -4.6949    2.7951 H         1 <0>         0.1425
     54 N4          1.1097   -2.7052    1.3671 N.4       1 <0>        -0.5199
     55 H24         0.2370   -2.3577    1.7817 H         1 <0>         0.4340
     56 H25         1.9087   -2.3598    1.9117 H         1 <0>         0.4268
@<TRIPOS>BOND
     1    1    2 1
     2    1   32 1
     3    1   33 1
     4    1   34 1
     5    2    3 1
     6    2    4 1
     7    2    5 1
     8    3   35 1
     9    3   36 1
    10    3   37 1
    11    4   38 1
    12    4   39 1
    13    4   40 1
    14    5   15 2
    15    5    6 1
    16    6   13 2
    17    6    7 1
    18    7    8 2
    19    7   41 1
    20    8    9 1
    21    8   23 1
    22    9   10 2
    23    9   11 am
    24   11   12 1
    25   11   13 1
    26   13   14 1
    27   14   15 1
    28   14   16 1
    29   16   21 ar
    30   16   17 ar
    31   17   18 ar
    32   17   42 1
    33   18   19 ar
    34   18   43 1
    35   19   20 ar
    36   19   22 1
    37   20   21 ar
    38   20   44 1
    39   21   45 1
    40   23   46 1
    41   23   47 1
    42   23   54 1
    43   24   25 1
    44   24   48 1
    45   24   49 1
    46   24   54 1
    47   25   30 ar
    48   25   26 ar
    49   26   27 ar
    50   26   50 1
    51   27   28 ar
    52   27   51 1
    53   28   29 ar
    54   28   31 1
    55   29   30 ar
    56   29   52 1
    57   30   53 1
    58   54   55 1
    59   54   56 1
@<TRIPOS>MOLECULE
ZINC38546947
   51    54     0     0     0
SMALL
USER_CHARGES

@<TRIPOS>ATOM
      1 C1         -0.0184    1.5028    0.0103 C.3       1 <0>        -0.1421
      2 C2          0.0021   -0.0041    0.0020 C.ar      1 <0>         0.1859
      3 C3          0.0055   -0.6789   -1.2025 C.ar      1 <0>        -0.1732
      4 C4          0.0244   -2.0671   -1.2042 C.ar      1 <0>         0.0438
      5 C5          0.0391   -2.7287    0.0107 C.ar      1 <0>        -0.2048
      6 C6          0.0346   -1.9849    1.1860 C.ar      1 <0>         0.4518
      7 N1          0.0219   -0.6613    1.1459 N.ar      1 <0>        -0.5032
      8 N2          0.0488   -2.6368    2.4137 N.pl3     1 <0>        -0.6914
      9 C7          0.0685   -4.1007    2.4656 C.3       1 <0>         0.2625
     10 H1          0.6593   -4.4858    1.6345 H         1 <0>         0.1049
     11 C8         -1.3405   -4.6258    2.3661 C.ar      1 <0>        -0.1056
     12 C9         -2.3679   -3.9778    3.0266 C.ar      1 <0>        -0.0942
     13 C10        -3.6605   -4.4589    2.9358 C.ar      1 <0>        -0.0969
     14 C11        -3.9267   -5.5885    2.1848 C.ar      1 <0>        -0.0960
     15 C12        -2.8993   -6.2373    1.5238 C.ar      1 <0>        -0.0255
     16 C13        -1.6064   -5.7517    1.6101 C.ar      1 <0>        -0.1033
     17 Cl1        -3.2328   -7.6559    0.5805 Cl        1 <0>        -0.0496
     18 C14         0.6809   -4.5490    3.7676 C.2       1 <0>        -0.1929
     19 C15         0.6465   -3.7295    4.8808 C.2       1 <0>        -0.1491
     20 C16         1.2061   -4.1635    6.0356 C.2       1 <0>        -0.1663
     21 S1          1.8108   -5.7782    5.5733 S.3       1 <0>         0.2034
     22 C17         1.2735   -5.7717    3.8708 C.2       1 <0>         0.0890
     23 N3          1.4234   -6.7615    2.8974 N.am      1 <0>        -0.6197
     24 C18         2.0477   -7.9166    3.2014 C.2       1 <0>         0.6067
     25 O1          2.4809   -8.0970    4.3245 O.2       1 <0>        -0.4741
     26 C19         2.2051   -8.9559    2.1792 C.2       1 <0>        -0.1027
     27 C20         2.8090  -10.1683    2.3538 C.2       1 <0>        -0.0888
     28 C21         2.7333  -10.8379    1.1225 C.2       1 <0>        -0.2224
     29 C22         2.0947  -10.0155    0.2612 C.2       1 <0>         0.0145
     30 O2          1.7736   -8.8845    0.9030 O.3       1 <0>        -0.1701
     31 C23         1.2954   -3.4635    7.3672 C.3       1 <0>        -0.0743
     32 H2          1.0042    1.8801    0.0026 H         1 <0>         0.1142
     33 H3         -0.5455    1.8639   -0.8728 H         1 <0>         0.1178
     34 H4         -0.5286    1.8543    0.9071 H         1 <0>         0.0943
     35 H5         -0.0067   -0.1323   -2.1339 H         1 <0>         0.1806
     36 H6          0.0271   -2.6181   -2.1331 H         1 <0>         0.1754
     37 H7          0.0536   -3.8080    0.0460 H         1 <0>         0.1735
     38 H8          0.0458   -2.1223    3.2361 H         1 <0>         0.4195
     39 H9         -2.1603   -3.0956    3.6140 H         1 <0>         0.1230
     40 H10        -4.4626   -3.9523    3.4519 H         1 <0>         0.1390
     41 H11        -4.9367   -5.9647    2.1145 H         1 <0>         0.1417
     42 H12        -0.8045   -6.2552    1.0906 H         1 <0>         0.1299
     43 H13         0.1804   -2.7566    4.8301 H         1 <0>         0.1241
     44 H14         1.0782   -6.6177    2.0023 H         1 <0>         0.4179
     45 H15         3.2582  -10.5397    3.2630 H         1 <0>         0.1668
     46 H16         3.1142  -11.8247    0.9043 H         1 <0>         0.1652
     47 H17         1.8757  -10.2356   -0.7733 H         1 <0>         0.2180
     48 H18         0.4193   -3.7104    7.9669 H         1 <0>         0.0840
     49 H19         2.1958   -3.7881    7.8886 H         1 <0>         0.0791
     50 H20         1.3356   -2.3858    7.2092 H         1 <0>         0.0809
     51 H21         0.0233   -0.1628    1.9780 H         1 <0>         0.4386
@<TRIPOS>BOND
     1    1    2 1
     2    1   32 1
     3    1   33 1
     4    1   34 1
     5    2    7 ar
     6    2    3 ar
     7    3    4 ar
     8    3   35 1
     9    4    5 ar
    10    4   36 1
    11    5    6 ar
    12    5   37 1
    13    6    7 ar
    14    6    8 1
    15    7   51 1
    16    8    9 1
    17    8   38 1
    18    9   10 1
    19    9   11 1
    20    9   18 1
    21   11   16 ar
    22   11   12 ar
    23   12   13 ar
    24   12   39 1
    25   13   14 ar
    26   13   40 1
    27   14   15 ar
    28   14   41 1
    29   15   16 ar
    30   15   17 1
    31   16   42 1
    32   18   22 2
    33   18   19 1
    34   19   20 2
    35   19   43 1
    36   20   21 1
    37   20   31 1
    38   21   22 1
    39   22   23 1
    40   23   24 am
    41   23   44 1
    42   24   25 2
    43   24   26 1
    44   26   30 1
    45   26   27 2
    46   27   28 1
    47   27   45 1
    48   28   29 2
    49   28   46 1
    50   29   30 1
    51   29   47 1
    52   31   48 1
    53   31   49 1
    54   31   50 1
@<TRIPOS>MOLECULE
ZINC39660363
   70    72     0     0     0
SMALL
USER_CHARGES

@<TRIPOS>ATOM
      1 C1         -6.2931   -5.0662    1.8561 C.3       1 <0>        -0.1556
      2 C2         -4.8197   -5.0995    1.4451 C.3       1 <0>        -0.1272
      3 C3         -3.9621   -5.4845    2.6522 C.3       1 <0>        -0.1190
      4 C4         -2.4887   -5.5178    2.2412 C.3       1 <0>        -0.1197
      5 C5         -1.6311   -5.9028    3.4483 C.3       1 <0>        -0.1299
      6 C6         -0.1577   -5.9361    3.0373 C.3       1 <0>         0.1138
      7 N1          0.6635   -6.3048    4.1932 N.am      1 <0>        -0.7299
      8 C7          2.0021   -6.3975    4.0667 C.2       1 <0>         0.5185
      9 O1          2.5268   -6.1757    2.9960 O.2       1 <0>        -0.5176
     10 C8          2.8468   -6.7767    5.2557 C.3       1 <0>        -0.1136
     11 H1          2.4374   -6.3392    6.1662 H         1 <0>         0.1123
     12 C9          4.3069   -6.3163    5.0470 C.3       1 <0>         0.1141
     13 N2          5.1288   -7.3993    5.6366 N.am      1 <0>        -0.6246
     14 C10         4.4273   -8.6468    5.2496 C.3       1 <0>         0.1032
     15 C11         2.9300   -8.3067    5.3873 C.3       1 <0>        -0.0732
     16 C12         2.1326   -8.9771    4.2727 C.3       1 <0>        -0.1484
     17 C13         2.1819  -10.4963    4.4586 C.3       1 <0>        -0.0074
     18 N3          1.6219  -10.8493    5.7688 N.4       1 <0>        -0.5048
     19 C14         2.4494  -10.2770    6.8376 C.3       1 <0>        -0.0112
     20 C15         2.4114   -8.7485    6.7524 C.3       1 <0>        -0.1358
     21 C16         6.2586   -7.2777    6.3614 C.2       1 <0>         0.5387
     22 O2          6.6639   -6.1779    6.6727 O.2       1 <0>        -0.5045
     23 C17         7.0182   -8.5084    6.7850 C.3       1 <0>        -0.0549
     24 H2          6.3446   -9.1905    7.3037 H         1 <0>         0.0964
     25 C18         7.5946   -9.2024    5.5492 C.3       1 <0>        -0.1142
     26 C19         8.2393  -10.5271    5.9624 C.3       1 <0>        -0.1513
     27 C20         8.1413   -8.1125    7.7084 C.ar      1 <0>        -0.0804
     28 C21         9.1226   -7.2430    7.2701 C.ar      1 <0>        -0.0826
     29 C22        10.1528   -6.8798    8.1172 C.ar      1 <0>        -0.1182
     30 C23        10.2016   -7.3857    9.4027 C.ar      1 <0>        -0.1115
     31 C24         9.2199   -8.2544    9.8413 C.ar      1 <0>        -0.1217
     32 C25         8.1873   -8.6142    8.9957 C.ar      1 <0>        -0.1122
     33 H3         -6.4324   -4.3321    2.6497 H         1 <0>         0.0545
     34 H4         -6.9041   -4.7919    0.9961 H         1 <0>         0.0567
     35 H5         -6.5925   -6.0508    2.2152 H         1 <0>         0.0531
     36 H6         -4.6804   -5.8336    0.6515 H         1 <0>         0.0615
     37 H7         -4.5204   -4.1149    1.0859 H         1 <0>         0.0630
     38 H8         -4.1014   -4.7504    3.4458 H         1 <0>         0.0629
     39 H9         -4.2615   -6.4691    3.0114 H         1 <0>         0.0604
     40 H10        -2.3494   -6.2519    1.4476 H         1 <0>         0.0661
     41 H11        -2.1894   -4.5332    1.8820 H         1 <0>         0.0686
     42 H12        -1.7704   -5.1688    4.2420 H         1 <0>         0.0712
     43 H13        -1.9305   -6.8874    3.8075 H         1 <0>         0.0658
     44 H14        -0.0184   -6.6702    2.2437 H         1 <0>         0.0714
     45 H15         0.1416   -4.9515    2.6782 H         1 <0>         0.0738
     46 H16         0.2438   -6.4822    5.0495 H         1 <0>         0.3990
     47 H17         4.5238   -6.2104    3.9841 H         1 <0>         0.0991
     48 H18         4.4871   -5.3760    5.5680 H         1 <0>         0.0957
     49 H19         4.6648   -8.9129    4.2196 H         1 <0>         0.0876
     50 H20         4.6956   -9.4593    5.9249 H         1 <0>         0.0850
     51 H21         1.0971   -8.6391    4.3122 H         1 <0>         0.0993
     52 H22         2.5651   -8.7145    3.3073 H         1 <0>         0.1241
     53 H23         1.5990  -10.9773    3.6731 H         1 <0>         0.1397
     54 H24         3.2162  -10.8356    4.4025 H         1 <0>         0.1333
     55 H25         0.6833  -10.4860    5.8409 H         1 <0>         0.4284
     56 H26         2.0639  -10.5963    7.8058 H         1 <0>         0.1406
     57 H27         3.4774  -10.6214    6.7248 H         1 <0>         0.1323
     58 H28         3.0404   -8.3247    7.5352 H         1 <0>         0.1189
     59 H29         1.3860   -8.4023    6.8815 H         1 <0>         0.0974
     60 H30         6.7946   -9.3951    4.8344 H         1 <0>         0.0660
     61 H31         8.3460   -8.5606    5.0894 H         1 <0>         0.0756
     62 H32         9.0393  -10.3344    6.6773 H         1 <0>         0.0646
     63 H33         7.4879  -11.1689    6.4223 H         1 <0>         0.0522
     64 H34         8.6499  -11.0215    5.0821 H         1 <0>         0.0623
     65 H35         9.0845   -6.8478    6.2657 H         1 <0>         0.1184
     66 H36        10.9199   -6.2011    7.7745 H         1 <0>         0.1244
     67 H37        11.0069   -7.1024   10.0643 H         1 <0>         0.1244
     68 H38         9.2581   -8.6499   10.8456 H         1 <0>         0.1237
     69 H39         7.4182   -9.2900    9.3396 H         1 <0>         0.1166
     70 H40         1.5993  -11.8535    5.8639 H         1 <0>         0.4346
@<TRIPOS>BOND
     1    1    2 1
     2    1   33 1
     3    1   34 1
     4    1   35 1
     5    2    3 1
     6    2   36 1
     7    2   37 1
     8    3    4 1
     9    3   38 1
    10    3   39 1
    11    4    5 1
    12    4   40 1
    13    4   41 1
    14    5    6 1
    15    5   42 1
    16    5   43 1
    17    6    7 1
    18    6   44 1
    19    6   45 1
    20    7    8 am
    21    7   46 1
    22    8    9 2
    23    8   10 1
    24   10   11 1
    25   10   15 1
    26   10   12 1
    27   12   13 1
    28   12   47 1
    29   12   48 1
    30   13   14 1
    31   13   21 am
    32   14   15 1
    33   14   49 1
    34   14   50 1
    35   15   20 1
    36   15   16 1
    37   16   17 1
    38   16   51 1
    39   16   52 1
    40   17   18 1
    41   17   53 1
    42   17   54 1
    43   18   19 1
    44   18   55 1
    45   18   70 1
    46   19   20 1
    47   19   56 1
    48   19   57 1
    49   20   58 1
    50   20   59 1
    51   21   22 2
    52   21   23 1
    53   23   24 1
    54   23   25 1
    55   23   27 1
    56   25   26 1
    57   25   60 1
    58   25   61 1
    59   26   62 1
    60   26   63 1
    61   26   64 1
    62   27   32 ar
    63   27   28 ar
    64   28   29 ar
    65   28   65 1
    66   29   30 ar
    67   29   66 1
    68   30   31 ar
    69   30   67 1
    70   31   32 ar
    71   31   68 1
    72   32   69 1
@<TRIPOS>MOLECULE
ZINC53417463
   66    68     0     0     0
SMALL
USER_CHARGES

@<TRIPOS>ATOM
      1 C1         -0.0187    1.5258    0.0104 C.3       1 <0>        -0.1708
      2 C2          0.0021   -0.0041    0.0020 C.3       1 <0>        -0.1132
      3 H1          0.5122   -0.3562   -0.8946 H         1 <0>         0.1191
      4 C3         -1.4343   -0.5350    0.0151 C.3       1 <0>        -0.1299
      5 C4         -2.1173   -0.0993    1.3146 C.3       1 <0>        -0.1127
      6 H2         -2.1761    0.9886    1.3479 H         1 <0>         0.0950
      7 C5         -1.3017   -0.6036    2.5071 C.3       1 <0>        -0.0052
      8 N1          0.0525   -0.0402    2.4516 N.4       1 <0>        -0.3843
      9 C6          0.7401   -0.5119    1.2425 C.3       1 <0>        -0.0086
     10 C7          0.8068   -0.4644    3.6387 C.3       1 <0>        -0.0097
     11 C8          2.1744    0.2214    3.6459 C.3       1 <0>        -0.1465
     12 C9          2.9600   -0.2205    4.8822 C.3       1 <0>        -0.1305
     13 C10         4.3277    0.4653    4.8894 C.3       1 <0>         0.1190
     14 N2          5.0799    0.0422    6.0732 N.am      1 <0>        -0.7313
     15 C11         6.3207    0.5217    6.2901 C.2       1 <0>         0.5133
     16 O1          6.8145    1.3034    5.5053 O.2       1 <0>        -0.5291
     17 C12         7.0944    0.0865    7.5079 C.3       1 <0>         0.1007
     18 N3          8.4040    0.7431    7.5148 N.am      1 <0>        -0.7258
     19 C13         9.2732    0.5027    8.5164 C.2       1 <0>         0.5185
     20 O2          8.9711   -0.2572    9.4120 O.2       1 <0>        -0.5213
     21 C14        10.6203    1.1782    8.5235 C.3       1 <0>        -0.1016
     22 C15        11.3941    0.7430    9.7412 C.ar      1 <0>        -0.0614
     23 C16        11.3674    1.4970   10.8743 C.ar      1 <0>        -0.0994
     24 C17        12.0764    1.1107   12.0099 C.ar      1 <0>        -0.1155
     25 C18        12.8166   -0.0316   12.0191 C.ar      1 <0>        -0.1008
     26 C19        12.8683   -0.8358   10.8681 C.ar      1 <0>        -0.0521
     27 C20        12.1421   -0.4461    9.7149 C.ar      1 <0>        -0.0329
     28 C21        12.1892   -1.2537    8.5656 C.ar      1 <0>        -0.1104
     29 C22        12.9244   -2.3987    8.5769 C.ar      1 <0>        -0.1122
     30 C23        13.6333   -2.7853    9.7130 C.ar      1 <0>        -0.1187
     31 C24        13.6220   -2.0218   10.8396 C.ar      1 <0>        -0.1020
     32 C25        -3.5278   -0.6892    1.3731 C.3       1 <0>        -0.1518
     33 H3          1.0039    1.9031    0.0027 H         1 <0>         0.0732
     34 H4         -0.5459    1.8868   -0.8726 H         1 <0>         0.0850
     35 H5         -0.5289    1.8773    0.9072 H         1 <0>         0.0509
     36 H6         -1.9802   -0.1304   -0.8371 H         1 <0>         0.0950
     37 H7         -1.4211   -1.6234   -0.0425 H         1 <0>         0.0831
     38 H8         -1.7854   -0.2953    3.4340 H         1 <0>         0.1299
     39 H9         -1.2438   -1.6915    2.4730 H         1 <0>         0.1292
     40 H10         0.7545   -1.6018    1.2354 H         1 <0>         0.1297
     41 H11         1.7631   -0.1359    1.2355 H         1 <0>         0.1321
     42 H12         0.2562   -0.1865    4.5374 H         1 <0>         0.1322
     43 H13         0.9426   -1.5457    3.6156 H         1 <0>         0.1311
     44 H14         2.7250   -0.0566    2.7471 H         1 <0>         0.0918
     45 H15         2.0386    1.3026    3.6689 H         1 <0>         0.0914
     46 H16         2.4095    0.0575    5.7810 H         1 <0>         0.0837
     47 H17         3.0958   -1.3017    4.8592 H         1 <0>         0.0835
     48 H18         4.8782    0.1873    3.9906 H         1 <0>         0.0731
     49 H19         4.1919    1.5466    4.9125 H         1 <0>         0.0734
     50 H20         4.6849   -0.5829    6.7010 H         1 <0>         0.4068
     51 H21         6.5439    0.3644    8.4066 H         1 <0>         0.1013
     52 H22         7.2302   -0.9948    7.4848 H         1 <0>         0.1012
     53 H23         8.6456    1.3509    6.7984 H         1 <0>         0.4128
     54 H24        11.1708    0.9002    7.6247 H         1 <0>         0.1077
     55 H25        10.4845    2.2594    8.5465 H         1 <0>         0.1089
     56 H26        10.7884    2.4084   10.8932 H         1 <0>         0.1217
     57 H27        12.0384    1.7271   12.8959 H         1 <0>         0.1255
     58 H28        13.3616   -0.3181   12.9064 H         1 <0>         0.1286
     59 H29        11.6444   -0.9672    7.6781 H         1 <0>         0.1197
     60 H30        12.9589   -3.0175    7.6924 H         1 <0>         0.1220
     61 H31        14.2088   -3.6990    9.6956 H         1 <0>         0.1241
     62 H32        14.1768   -2.3335   11.7122 H         1 <0>         0.1285
     63 H33        -3.4683   -1.7771    1.3414 H         1 <0>         0.0674
     64 H34        -4.0134   -0.3787    2.2982 H         1 <0>         0.0684
     65 H35        -4.1066   -0.3320    0.5213 H         1 <0>         0.0778
     66 H36        -0.0039    0.9671    2.4337 H         1 <0>         0.4211
@<TRIPOS>BOND
     1    1    2 1
     2    1   33 1
     3    1   34 1
     4    1   35 1
     5    2    3 1
     6    2    9 1
     7    2    4 1
     8    4    5 1
     9    4   36 1
    10    4   37 1
    11    5    6 1
    12    5    7 1
    13    5   32 1
    14    7    8 1
    15    7   38 1
    16    7   39 1
    17    8    9 1
    18    8   10 1
    19    8   66 1
    20    9   40 1
    21    9   41 1
    22   10   11 1
    23   10   42 1
    24   10   43 1
    25   11   12 1
    26   11   44 1
    27   11   45 1
    28   12   13 1
    29   12   46 1
    30   12   47 1
    31   13   14 1
    32   13   48 1
    33   13   49 1
    34   14   15 am
    35   14   50 1
    36   15   16 2
    37   15   17 1
    38   17   18 1
    39   17   51 1
    40   17   52 1
    41   18   19 am
    42   18   53 1
    43   19   20 2
    44   19   21 1
    45   21   22 1
    46   21   54 1
    47   21   55 1
    48   22   27 ar
    49   22   23 ar
    50   23   24 ar
    51   23   56 1
    52   24   25 ar
    53   24   57 1
    54   25   26 ar
    55   25   58 1
    56   26   31 ar
    57   26   27 ar
    58   27   28 ar
    59   28   29 ar
    60   28   59 1
    61   29   30 ar
    62   29   60 1
    63   30   31 ar
    64   30   61 1
    65   31   62 1
    66   32   63 1
    67   32   64 1
    68   32   65 1
@<TRIPOS>MOLECULE
ZINC09641712
   48    51     0     0     0
SMALL
USER_CHARGES
2-[[3-(3-chlorophenyl)-8-oxo-2,4,6,7-tetrazabicyclo[4.3.0]nona-2,4,9-trien-5-yl]sulfanyl]-N-(4-ethylphenyl)-acetamide
@<TRIPOS>ATOM
      1 C1        -11.1779   -4.7812    0.8304 C.3       1 <0>        -0.1476
      2 C2        -10.3566   -5.2929   -0.3548 C.3       1 <0>        -0.0868
      3 C3         -8.9469   -4.7701   -0.2521 C.ar      1 <0>        -0.0884
      4 C4         -7.9890   -5.4983    0.4293 C.ar      1 <0>        -0.1001
      5 C5         -6.6962   -5.0219    0.5252 C.ar      1 <0>        -0.1138
      6 C6         -6.3587   -3.8103   -0.0635 C.ar      1 <0>         0.1294
      7 C7         -7.3245   -3.0787   -0.7422 C.ar      1 <0>        -0.1347
      8 C8         -8.6140   -3.5635   -0.8398 C.ar      1 <0>        -0.0998
      9 N1         -5.0498   -3.3249    0.0318 N.am      1 <0>        -0.6600
     10 C9         -4.0102   -4.1825    0.0159 C.2       1 <0>         0.5331
     11 O1         -4.2109   -5.3786    0.0035 O.2       1 <0>        -0.5032
     12 C10        -2.5985   -3.6553    0.0133 C.3       1 <0>        -0.1541
     13 S1         -1.4364   -5.0428   -0.0093 S.3       1 <0>         0.1279
     14 C11         0.0904   -4.1632   -0.0086 C.2       1 <0>         0.3943
     15 N2          0.0979   -2.8395    0.0125 N.2       1 <0>        -0.5621
     16 C12         1.2484   -2.1619    0.0086 C.2       1 <0>         0.4420
     17 N3          2.4156   -2.7920   -0.0058 N.2       1 <0>        -0.5108
     18 C13         2.4561   -4.1278   -0.0219 C.2       1 <0>         0.3602
     19 N4          1.2750   -4.8412   -0.0233 N.pl3     1 <0>        -0.3287
     20 N5          1.5955   -6.2021   -0.0418 N.am      1 <0>        -0.5035
     21 H1          0.9593   -6.9343   -0.0468 H         1 <0>         0.4417
     22 C14         2.9373   -6.3246   -0.0515 C.2       1 <0>         0.5541
     23 O2          3.5575   -7.3753   -0.0684 O.2       1 <0>        -0.5209
     24 C15         3.4977   -5.0463   -0.0394 C.2       1 <0>        -0.3176
     25 C16         1.2209   -0.6813    0.0267 C.ar      1 <0>        -0.0493
     26 C17         2.4144    0.0413    0.0282 C.ar      1 <0>        -0.0517
     27 C18         2.3830    1.4205    0.0448 C.ar      1 <0>        -0.1144
     28 C19         1.1712    2.0879    0.0599 C.ar      1 <0>        -0.0762
     29 C20        -0.0168    1.3771    0.0585 C.ar      1 <0>        -0.0489
     30 C21         0.0020   -0.0039    0.0420 C.ar      1 <0>        -0.0549
     31 Cl1        -1.5327    2.2230    0.0702 Cl        1 <0>        -0.0584
     32 H2        -10.7286   -5.1283    1.7607 H         1 <0>         0.0559
     33 H3        -11.1928   -3.6913    0.8186 H         1 <0>         0.0557
     34 H4        -12.1976   -5.1593    0.7561 H         1 <0>         0.0592
     35 H5        -10.8060   -4.9457   -1.2852 H         1 <0>         0.0728
     36 H6        -10.3418   -6.3827   -0.3430 H         1 <0>         0.0729
     37 H7         -8.2520   -6.4407    0.8866 H         1 <0>         0.1267
     38 H8         -5.9484   -5.5913    1.0572 H         1 <0>         0.1388
     39 H9         -7.0662   -2.1339   -1.1973 H         1 <0>         0.1273
     40 H10        -9.3644   -2.9973   -1.3716 H         1 <0>         0.1277
     41 H11        -4.8906   -2.3712    0.1093 H         1 <0>         0.4162
     42 H12        -2.4325   -3.0570    0.9091 H         1 <0>         0.1426
     43 H13        -2.4432   -3.0368   -0.8707 H         1 <0>         0.1427
     44 H14         4.5523   -4.8133   -0.0427 H         1 <0>         0.1826
     45 H15         3.3612   -0.4781    0.0161 H         1 <0>         0.1495
     46 H16         3.3065    1.9804    0.0456 H         1 <0>         0.1447
     47 H17         1.1520    3.1676    0.0725 H         1 <0>         0.1416
     48 H18        -0.9251   -0.5578    0.0406 H         1 <0>         0.1462
@<TRIPOS>BOND
     1    1    2 1
     2    1   32 1
     3    1   33 1
     4    1   34 1
     5    2    3 1
     6    2   35 1
     7    2   36 1
     8    3    8 ar
     9    3    4 ar
    10    4    5 ar
    11    4   37 1
    12    5    6 ar
    13    5   38 1
    14    6    7 ar
    15    6    9 1
    16    7    8 ar
    17    7   39 1
    18    8   40 1
    19    9   10 am
    20    9   41 1
    21   10   11 2
    22   10   12 1
    23   12   13 1
    24   12   42 1
    25   12   43 1
    26   13   14 1
    27   14   19 1
    28   14   15 2
    29   15   16 1
    30   16   17 2
    31   16   25 1
    32   17   18 1
    33   18   24 2
    34   18   19 1
    35   19   20 1
    36   20   21 1
    37   20   22 am
    38   22   23 2
    39   22   24 1
    40   24   44 1
    41   25   30 ar
    42   25   26 ar
    43   26   27 ar
    44   26   45 1
    45   27   28 ar
    46   27   46 1
    47   28   29 ar
    48   28   47 1
    49   29   30 ar
    50   29   31 1
    51   30   48 1
@<TRIPOS>MOLECULE
ZINC16490109
   57    59     0     0     0
SMALL
USER_CHARGES
isopropyl 4-[[(3S)-1-(phenylcarbamoyl)piperidine-3-carbonyl]amino]benzoate
@<TRIPOS>ATOM
      1 C1          6.8188   -0.5447   -1.9379 C.3       1 <0>        -0.1507
      2 C2          5.9966   -0.8907   -0.6948 C.3       1 <0>         0.0815
      3 C3          6.8012   -0.5477    0.5605 C.3       1 <0>        -0.1712
      4 O1          4.7624   -0.1260   -0.7026 O.3       1 <0>        -0.3491
      5 C4          3.6905   -0.6884   -0.1105 C.2       1 <0>         0.5114
      6 O2          3.7847   -1.7877    0.3984 O.2       1 <0>        -0.5077
      7 C5          2.4033    0.0304   -0.0801 C.ar      1 <0>        -0.1451
      8 C6          1.2902   -0.5516    0.5339 C.ar      1 <0>        -0.0324
      9 C7          0.0903    0.1224    0.5608 C.ar      1 <0>        -0.1569
     10 C8         -0.0157    1.3812   -0.0225 C.ar      1 <0>         0.1814
     11 C9          1.0901    1.9635   -0.6345 C.ar      1 <0>        -0.1365
     12 C10         2.2932    1.2956   -0.6647 C.ar      1 <0>        -0.0400
     13 N1         -1.2342    2.0583    0.0012 N.am      1 <0>        -0.6734
     14 C11        -1.2572    3.4001    0.1256 C.2       1 <0>         0.5238
     15 O3         -0.2187    4.0263    0.1330 O.2       1 <0>        -0.5058
     16 C12        -2.5735    4.1223    0.2555 C.3       1 <0>        -0.1218
     17 H1         -3.0980    3.7660    1.1422 H         1 <0>         0.1091
     18 C13        -2.3207    5.6264    0.3815 C.3       1 <0>        -0.1012
     19 C14        -3.6549    6.3576    0.5465 C.3       1 <0>        -0.1353
     20 C15        -4.5221    6.1153   -0.6929 C.3       1 <0>         0.1059
     21 N2         -4.6499    4.6670   -0.9048 N.am      1 <0>        -0.6236
     22 C16        -3.4284    3.8546   -0.9872 C.3       1 <0>         0.1381
     23 C17        -5.8644    4.0947   -1.0219 C.2       1 <0>         0.7102
     24 O4         -5.9615    2.8853   -1.1010 O.2       1 <0>        -0.5692
     25 N3         -6.9714    4.8629   -1.0513 N.am      1 <0>        -0.6849
     26 C18        -8.2238    4.2776   -1.2691 C.ar      1 <0>         0.1579
     27 C19        -9.1949    4.9601   -1.9898 C.ar      1 <0>        -0.1471
     28 C20       -10.4283    4.3777   -2.2071 C.ar      1 <0>        -0.1008
     29 C21       -10.7002    3.1208   -1.6988 C.ar      1 <0>        -0.1351
     30 C22        -9.7371    2.4408   -0.9762 C.ar      1 <0>        -0.1017
     31 C23        -8.4999    3.0155   -0.7600 C.ar      1 <0>        -0.1196
     32 H2          7.0512    0.5202   -1.9351 H         1 <0>         0.0687
     33 H3          7.7453   -1.1188   -1.9321 H         1 <0>         0.0799
     34 H4          6.2456   -0.7891   -2.8323 H         1 <0>         0.0652
     35 H5          5.7643   -1.9557   -0.6977 H         1 <0>         0.0863
     36 H6          7.0336    0.5173    0.5634 H         1 <0>         0.0671
     37 H7          6.2155   -0.7942    1.4461 H         1 <0>         0.0617
     38 H8          7.7278   -1.1218    0.5663 H         1 <0>         0.0765
     39 H9          1.3715   -1.5289    0.9862 H         1 <0>         0.1429
     40 H10        -0.7700   -0.3266    1.0348 H         1 <0>         0.1378
     41 H11         1.0042    2.9407   -1.0862 H         1 <0>         0.1481
     42 H12         3.1511    1.7482   -1.1395 H         1 <0>         0.1424
     43 H13        -2.0654    1.5636   -0.0719 H         1 <0>         0.4167
     44 H14        -1.6920    5.8173    1.2513 H         1 <0>         0.0797
     45 H15        -1.8179    5.9865   -0.5160 H         1 <0>         0.0771
     46 H16        -4.1697    5.9804    1.4301 H         1 <0>         0.0713
     47 H17        -3.4725    7.4263    0.6596 H         1 <0>         0.0868
     48 H18        -5.5094    6.5505   -0.5388 H         1 <0>         0.0794
     49 H19        -4.0510    6.5718   -1.5634 H         1 <0>         0.0784
     50 H20        -2.8682    4.1267   -1.8817 H         1 <0>         0.0775
     51 H21        -3.6942    2.7982   -1.0272 H         1 <0>         0.1013
     52 H22        -6.9000    5.8216   -0.9215 H         1 <0>         0.4062
     53 H23        -8.9847    5.9437   -2.3832 H         1 <0>         0.1239
     54 H24       -11.1826    4.9063   -2.7710 H         1 <0>         0.1264
     55 H25       -11.6669    2.6694   -1.8662 H         1 <0>         0.1234
     56 H26        -9.9526    1.4594   -0.5802 H         1 <0>         0.1256
     57 H27        -7.7483    2.4841   -0.1952 H         1 <0>         0.1398
@<TRIPOS>BOND
     1    1    2 1
     2    1   32 1
     3    1   33 1
     4    1   34 1
     5    2    3 1
     6    2    4 1
     7    2   35 1
     8    3   36 1
     9    3   37 1
    10    3   38 1
    11    4    5 1
    12    5    6 2
    13    5    7 1
    14    7   12 ar
    15    7    8 ar
    16    8    9 ar
    17    8   39 1
    18    9   10 ar
    19    9   40 1
    20   10   11 ar
    21   10   13 1
    22   11   12 ar
    23   11   41 1
    24   12   42 1
    25   13   14 am
    26   13   43 1
    27   14   15 2
    28   14   16 1
    29   16   17 1
    30   16   22 1
    31   16   18 1
    32   18   19 1
    33   18   44 1
    34   18   45 1
    35   19   20 1
    36   19   46 1
    37   19   47 1
    38   20   21 1
    39   20   48 1
    40   20   49 1
    41   21   22 1
    42   21   23 am
    43   22   50 1
    44   22   51 1
    45   23   24 2
    46   23   25 am
    47   25   26 1
    48   25   52 1
    49   26   31 ar
    50   26   27 ar
    51   27   28 ar
    52   27   53 1
    53   28   29 ar
    54   28   54 1
    55   29   30 ar
    56   29   55 1
    57   30   31 ar
    58   30   56 1
    59   31   57 1
@<TRIPOS>MOLECULE
ZINC32856350
   48    51     0     0     0
SMALL
USER_CHARGES
[(1S)-2-methoxy-2-oxo-1-phenyl-ethyl] 1-amino-9,10-dioxo-anthracene-2-carboxylate
@<TRIPOS>ATOM
      1 C1         10.4957    3.1146   -3.4272 C.3       1 <0>         0.0315
      2 O1         10.1781    3.0001   -2.0150 O.3       1 <0>        -0.3466
      3 C2          9.0596    2.3308   -1.6942 C.2       1 <0>         0.4555
      4 O2          8.3689    1.8564   -2.5646 O.2       1 <0>        -0.4861
      5 C3          8.6655    2.1712   -0.2484 C.3       1 <0>         0.1469
      6 H1          8.4841    3.1538    0.2115 H         1 <0>         0.1368
      7 C4          9.7540    1.4366    0.4908 C.ar      1 <0>        -0.1021
      8 C5          9.8408    0.0597    0.4039 C.ar      1 <0>        -0.0869
      9 C6         10.8419   -0.6137    1.0785 C.ar      1 <0>        -0.1203
     10 C7         11.7508    0.0889    1.8474 C.ar      1 <0>        -0.1019
     11 C8         11.6608    1.4653    1.9386 C.ar      1 <0>        -0.1189
     12 C9         10.6623    2.1391    1.2605 C.ar      1 <0>        -0.0864
     13 O3          7.4285    1.4155   -0.1646 O.3       1 <0>        -0.3146
     14 C10         6.2793    2.1187   -0.1877 C.2       1 <0>         0.5358
     15 O4          6.3100    3.3300   -0.2755 O.2       1 <0>        -0.5135
     16 C11         4.9839    1.4177   -0.1064 C.ar      1 <0>        -0.2185
     17 C12         4.9476    0.0263   -0.0261 C.ar      1 <0>         0.0301
     18 C13         3.7381   -0.6390    0.0508 C.ar      1 <0>        -0.1621
     19 C14         2.5418    0.0726    0.0491 C.ar      1 <0>        -0.0161
     20 C15         2.5588    1.4766   -0.0312 C.ar      1 <0>        -0.2462
     21 C16         3.7842    2.1530   -0.1094 C.ar      1 <0>         0.3499
     22 N1          3.8136    3.5300   -0.1891 N.pl3     1 <0>        -0.8448
     23 C17         1.2950    2.2326   -0.0327 C.2       1 <0>         0.4549
     24 O5          1.3127    3.4462   -0.1028 O.2       1 <0>        -0.4560
     25 C18         0.0050    1.5157    0.0507 C.ar      1 <0>        -0.1142
     26 C19        -1.1930    2.2240    0.0558 C.ar      1 <0>        -0.0683
     27 C20        -2.3962    1.5441    0.1298 C.ar      1 <0>        -0.0974
     28 C21        -2.4172    0.1634    0.2085 C.ar      1 <0>        -0.0978
     29 C22        -1.2355   -0.5562    0.2098 C.ar      1 <0>        -0.0672
     30 C23        -0.0162    0.1119    0.1311 C.ar      1 <0>        -0.1202
     31 C24         1.2508   -0.6474    0.1324 C.2       1 <0>         0.4311
     32 O6          1.2336   -1.8601    0.2020 O.2       1 <0>        -0.4157
     33 H2         11.4302    3.6822   -3.5480 H         1 <0>         0.1092
     34 H3          9.6789    3.6384   -3.9454 H         1 <0>         0.0670
     35 H4         10.6186    2.1100   -3.8580 H         1 <0>         0.0674
     36 H5          9.1284   -0.4895   -0.1939 H         1 <0>         0.1299
     37 H6         10.9124   -1.6891    1.0069 H         1 <0>         0.1293
     38 H7         12.5313   -0.4375    2.3766 H         1 <0>         0.1279
     39 H8         12.3709    2.0142    2.5393 H         1 <0>         0.1307
     40 H9         10.5921    3.2145    1.3317 H         1 <0>         0.1303
     41 H10         5.8701   -0.5353   -0.0237 H         1 <0>         0.1505
     42 H11         3.7213   -1.7172    0.1123 H         1 <0>         0.1495
     43 H12         2.8734    4.1010   -0.1912 H         1 <0>         0.4341
     44 H13         4.7772    4.0569   -0.2506 H         1 <0>         0.4349
     45 H14        -1.1840    3.3022   -0.0054 H         1 <0>         0.1446
     46 H15        -3.3248    2.0955    0.1299 H         1 <0>         0.1392
     47 H16        -3.3619   -0.3562    0.2697 H         1 <0>         0.1396
     48 H17        -1.2586   -1.6342    0.2715 H         1 <0>         0.1452
@<TRIPOS>BOND
     1    1    2 1
     2    1   33 1
     3    1   34 1
     4    1   35 1
     5    2    3 1
     6    3    4 2
     7    3    5 1
     8    5    6 1
     9    5    7 1
    10    5   13 1
    11    7   12 ar
    12    7    8 ar
    13    8    9 ar
    14    8   36 1
    15    9   10 ar
    16    9   37 1
    17   10   11 ar
    18   10   38 1
    19   11   12 ar
    20   11   39 1
    21   12   40 1
    22   13   14 1
    23   14   15 2
    24   14   16 1
    25   16   21 ar
    26   16   17 ar
    27   17   18 ar
    28   17   41 1
    29   18   19 ar
    30   18   42 1
    31   19   31 1
    32   19   20 ar
    33   20   21 ar
    34   20   23 1
    35   21   22 1
    36   22   43 1
    37   22   44 1
    38   23   24 2
    39   23   25 1
    40   25   30 ar
    41   25   26 ar
    42   26   27 ar
    43   26   45 1
    44   27   28 ar
    45   27   46 1
    46   28   29 ar
    47   28   47 1
    48   29   30 ar
    49   29   48 1
    50   30   31 1
    51   31   32 2
@<TRIPOS>MOLECULE
ZINC40927441
   49    52     0     0     0
SMALL
USER_CHARGES

@<TRIPOS>ATOM
      1 C1         -0.0184    1.5028    0.0103 C.3       1 <0>        -0.1170
      2 C2          0.0021   -0.0041    0.0020 C.2       1 <0>         0.2709
      3 C3         -1.1640   -0.6687    0.0040 C.2       1 <0>        -0.2966
      4 C4         -1.2529   -2.1715    0.0073 C.3       1 <0>         0.2779
      5 H1         -1.9641   -2.4951   -0.7527 H         1 <0>         0.1169
      6 N1          0.0619   -2.7369   -0.2838 N.pl3     1 <0>        -0.3790
      7 C5          1.2076   -2.0119   -0.2808 C.2       1 <0>         0.4977
      8 N2          2.1958   -2.8138   -0.5712 N.2       1 <0>        -0.5412
      9 C6          1.7235   -4.0531   -0.7702 C.2       1 <0>         0.2136
     10 N3          0.4183   -4.0460   -0.6040 N.2       1 <0>        -0.2596
     11 S1          2.6941   -5.4632   -1.1875 S.3       1 <0>         0.0329
     12 C7          4.3889   -4.8214   -1.2673 C.3       1 <0>        -0.0647
     13 C8          5.3338   -5.9409   -1.6206 C.ar      1 <0>        -0.0825
     14 C9          5.9096   -6.7011   -0.6198 C.ar      1 <0>        -0.0982
     15 C10         6.7764   -7.7280   -0.9439 C.ar      1 <0>        -0.1198
     16 C11         7.0671   -7.9950   -2.2687 C.ar      1 <0>        -0.1100
     17 C12         6.4906   -7.2354   -3.2695 C.ar      1 <0>        -0.1199
     18 C13         5.6204   -6.2112   -2.9456 C.ar      1 <0>        -0.0982
     19 N4          1.2123   -0.6509   -0.0130 N.pl3     1 <0>        -0.6026
     20 C14        -1.7148   -2.6445    1.3615 C.ar      1 <0>        -0.1099
     21 C15        -0.9701   -2.3463    2.4877 C.ar      1 <0>        -0.0777
     22 C16        -1.3911   -2.7791    3.7302 C.ar      1 <0>        -0.1469
     23 C17        -2.5624   -3.5133    3.8475 C.ar      1 <0>         0.1184
     24 C18        -3.3080   -3.8109    2.7160 C.ar      1 <0>        -0.1445
     25 C19        -2.8854   -3.3713    1.4764 C.ar      1 <0>        -0.0623
     26 O1         -2.9784   -3.9407    5.0686 O.3       1 <0>        -0.4983
     27 C20        -2.3639    0.0769    0.0026 C.2       1 <0>         0.5296
     28 O2         -2.3246    1.2933   -0.0005 O.2       1 <0>        -0.5148
     29 O3         -3.5540   -0.5598    0.0045 O.3       1 <0>        -0.3488
     30 C21        -4.7266    0.2568    0.0029 C.3       1 <0>         0.0371
     31 H2          1.0042    1.8801    0.0026 H         1 <0>         0.0694
     32 H3         -0.5455    1.8639   -0.8728 H         1 <0>         0.1131
     33 H4         -0.5286    1.8543    0.9071 H         1 <0>         0.1105
     34 H5          4.4472   -4.0430   -2.0280 H         1 <0>         0.1027
     35 H6          4.6654   -4.4045   -0.2989 H         1 <0>         0.1025
     36 H7          5.6826   -6.4925    0.4152 H         1 <0>         0.1262
     37 H8          7.2269   -8.3214   -0.1620 H         1 <0>         0.1260
     38 H9          7.7449   -8.7968   -2.5219 H         1 <0>         0.1246
     39 H10         6.7179   -7.4437   -4.3045 H         1 <0>         0.1260
     40 H11         5.1671   -5.6202   -3.7276 H         1 <0>         0.1263
     41 H12         2.0399   -0.1755    0.1601 H         1 <0>         0.4440
     42 H13        -0.0584   -1.7747    2.3959 H         1 <0>         0.1130
     43 H14        -0.8088   -2.5465    4.6095 H         1 <0>         0.1297
     44 H15        -4.2201   -4.3824    2.8047 H         1 <0>         0.1340
     45 H16        -3.4678   -3.5989    0.5959 H         1 <0>         0.1331
     46 H17        -3.5570   -3.3165    5.5276 H         1 <0>         0.3930
     47 H18        -5.6121   -0.3789    0.0047 H         1 <0>         0.1020
     48 H19        -4.7309    0.8883    0.8913 H         1 <0>         0.0606
     49 H20        -4.7314    0.8839   -0.8887 H         1 <0>         0.0609
@<TRIPOS>BOND
     1    1    2 1
     2    1   31 1
     3    1   32 1
     4    1   33 1
     5    2   19 1
     6    2    3 2
     7    3    4 1
     8    3   27 1
     9    4    5 1
    10    4    6 1
    11    4   20 1
    12    6   10 1
    13    6    7 1
    14    7    8 2
    15    7   19 1
    16    8    9 1
    17    9   10 2
    18    9   11 1
    19   11   12 1
    20   12   13 1
    21   12   34 1
    22   12   35 1
    23   13   18 ar
    24   13   14 ar
    25   14   15 ar
    26   14   36 1
    27   15   16 ar
    28   15   37 1
    29   16   17 ar
    30   16   38 1
    31   17   18 ar
    32   17   39 1
    33   18   40 1
    34   19   41 1
    35   20   25 ar
    36   20   21 ar
    37   21   22 ar
    38   21   42 1
    39   22   23 ar
    40   22   43 1
    41   23   24 ar
    42   23   26 1
    43   24   25 ar
    44   24   44 1
    45   25   45 1
    46   26   46 1
    47   27   28 2
    48   27   29 1
    49   29   30 1
    50   30   47 1
    51   30   48 1
    52   30   49 1
@<TRIPOS>MOLECULE
ZINC39954978
   53    57     0     0     0
SMALL
USER_CHARGES

@<TRIPOS>ATOM
      1 C1         -0.0187    1.5258    0.0104 C.3       1 <0>        -0.1478
      2 C2          0.0021   -0.0041    0.0020 C.3       1 <0>        -0.0920
      3 C3          0.7421   -0.5109    1.2415 C.3       1 <0>        -0.1495
      4 C4         -1.4333   -0.5336    0.0129 C.3       1 <0>        -0.0492
      5 C5         -1.4159   -2.0348   -0.1192 C.2       1 <0>        -0.0315
      6 C6         -1.4647   -2.8865    0.9074 C.2       1 <0>        -0.1423
      7 C7         -1.4203   -4.2544    0.2498 C.3       1 <0>        -0.0337
      8 H1         -2.3265   -4.8182    0.4711 H         1 <0>         0.1579
      9 N1         -1.3461   -3.9297   -1.1850 N.2       1 <0>        -0.1304
     10 N2         -1.3546   -2.7011   -1.2934 N.2       1 <0>        -0.1601
     11 C8         -0.1799   -5.0301    0.6977 C.3       1 <0>         0.4002
     12 H2          0.7237   -4.4800    0.4348 H         1 <0>         0.0866
     13 N3         -0.2262   -5.2718    2.1598 N.3       1 <0>        -0.4966
     14 N4         -0.1215   -6.7292    2.3474 N.3       1 <0>        -0.4480
     15 C9          0.5630   -7.1716    1.1162 C.3       1 <0>         0.2073
     16 H3          1.6419   -7.0175    1.1327 H         1 <0>         0.1138
     17 N5         -0.1621   -6.3728    0.0736 N.pl3     1 <0>        -0.5128
     18 N6         -0.6121   -7.1267   -0.9883 N.2       1 <0>        -0.1473
     19 C10        -0.6623   -8.4176   -0.9705 C.2       1 <0>         0.1046
     20 S1          0.0633   -8.8667    0.6370 S.3       1 <0>        -0.1440
     21 C11        -1.1906   -9.3411   -2.0378 C.3       1 <0>         0.1661
     22 O1         -1.6601   -8.5698   -3.1454 O.3       1 <0>        -0.2951
     23 C12        -2.1724   -9.2548   -4.2012 C.ar      1 <0>         0.1315
     24 C13        -2.2229  -10.6518   -4.1585 C.ar      1 <0>        -0.1926
     25 C14        -2.7298  -11.3650   -5.1994 C.ar      1 <0>        -0.0626
     26 C15        -3.2115  -10.6928   -6.3364 C.ar      1 <0>        -0.0832
     27 C16        -3.7423  -11.3986   -7.4295 C.ar      1 <0>        -0.0952
     28 C17        -4.2002  -10.7157   -8.5142 C.ar      1 <0>        -0.1274
     29 C18        -4.1512   -9.3236   -8.5590 C.ar      1 <0>        -0.1051
     30 C19        -3.6442   -8.6066   -7.5193 C.ar      1 <0>        -0.1139
     31 C20        -3.1617   -9.2770   -6.3818 C.ar      1 <0>        -0.0133
     32 C21        -2.6363   -8.5699   -5.2879 C.ar      1 <0>        -0.1453
     33 H4          1.0039    1.9031    0.0027 H         1 <0>         0.0577
     34 H5         -0.5459    1.8868   -0.8726 H         1 <0>         0.0582
     35 H6         -0.5289    1.8773    0.9072 H         1 <0>         0.0565
     36 H7          0.5123   -0.3556   -0.8948 H         1 <0>         0.0744
     37 H8          0.7568   -1.6008    1.2356 H         1 <0>         0.0480
     38 H9          1.7647   -0.1336    1.2338 H         1 <0>         0.0567
     39 H10         0.2319   -0.1594    2.1383 H         1 <0>         0.0576
     40 H11        -1.9156   -0.2570    0.9504 H         1 <0>         0.0830
     41 H12        -1.9862   -0.1019   -0.8214 H         1 <0>         0.0857
     42 H13        -1.5221   -2.6562    1.9610 H         1 <0>         0.1760
     43 H14         0.5267   -4.7918    2.6297 H         1 <0>         0.3395
     44 H15         0.4267   -6.9501    3.1652 H         1 <0>         0.3536
     45 H16        -0.3934  -10.0061   -2.3701 H         1 <0>         0.0974
     46 H17        -2.0118   -9.9324   -1.6327 H         1 <0>         0.1010
     47 H18        -1.8538  -11.1714   -3.2867 H         1 <0>         0.1316
     48 H19        -2.7619  -12.4436   -5.1530 H         1 <0>         0.1332
     49 H20        -3.7864  -12.4775   -7.4092 H         1 <0>         0.1269
     50 H21        -4.6072  -11.2609   -9.3529 H         1 <0>         0.1232
     51 H22        -4.5209   -8.8061   -9.4319 H         1 <0>         0.1241
     52 H23        -3.6122   -7.5282   -7.5681 H         1 <0>         0.1290
     53 H24        -2.5961   -7.4908   -5.3074 H         1 <0>         0.1376
@<TRIPOS>BOND
     1    1    2 1
     2    1   33 1
     3    1   34 1
     4    1   35 1
     5    2    3 1
     6    2    4 1
     7    2   36 1
     8    3   37 1
     9    3   38 1
    10    3   39 1
    11    4    5 1
    12    4   40 1
    13    4   41 1
    14    5   10 1
    15    5    6 2
    16    6    7 1
    17    6   42 1
    18    7    8 1
    19    7    9 1
    20    7   11 1
    21    9   10 2
    22   11   12 1
    23   11   17 1
    24   11   13 1
    25   13   14 1
    26   13   43 1
    27   14   15 1
    28   14   44 1
    29   15   16 1
    30   15   20 1
    31   15   17 1
    32   17   18 1
    33   18   19 2
    34   19   20 1
    35   19   21 1
    36   21   22 1
    37   21   45 1
    38   21   46 1
    39   22   23 1
    40   23   32 ar
    41   23   24 ar
    42   24   25 ar
    43   24   47 1
    44   25   26 ar
    45   25   48 1
    46   26   31 ar
    47   26   27 ar
    48   27   28 ar
    49   27   49 1
    50   28   29 ar
    51   28   50 1
    52   29   30 ar
    53   29   51 1
    54   30   31 ar
    55   30   52 1
    56   31   32 ar
    57   32   53 1
@<TRIPOS>MOLECULE
ZINC09090715
   51    54     0     0     0
SMALL
USER_CHARGES
methyl 4-(2-benzoyloxy-1-naphthyl)-6-methyl-2-thioxo-3,4-dihydro-1H-pyrimidine-5-carboxylate
@<TRIPOS>ATOM
      1 C1         -4.0897    5.1679   -2.6251 C.3       1 <0>        -0.1482
      2 C2         -3.3452    5.3502   -1.3276 C.2       1 <0>         0.2355
      3 C3         -2.0948    5.8613   -1.3452 C.2       1 <0>        -0.2583
      4 C4         -1.3826    6.0282   -0.0181 C.3       1 <0>         0.2209
      5 H1         -1.1189    7.0801    0.0918 H         1 <0>         0.0964
      6 N1         -2.1177    5.6165    1.1897 N.pl3     1 <0>        -0.6416
      7 C5         -3.3632    5.1224    1.0452 C.2       1 <0>         0.5509
      8 S1         -4.2296    4.6398    2.4407 S.2       1 <0>        -0.5722
      9 N2         -3.9452    4.9967   -0.1541 N.pl3     1 <0>        -0.6032
     10 C6         -0.1019    5.2360   -0.0752 C.ar      1 <0>        -0.1072
     11 C7         -0.1390    3.8320   -0.0688 C.ar      1 <0>        -0.0181
     12 C8         -1.3587    3.1354   -0.0106 C.ar      1 <0>        -0.1194
     13 C9         -1.3576    1.7745   -0.0118 C.ar      1 <0>        -0.0977
     14 C10        -0.1630    1.0581   -0.0592 C.ar      1 <0>        -0.1123
     15 C11         1.0366    1.6986   -0.1164 C.ar      1 <0>        -0.0965
     16 C12         1.0756    3.1033   -0.1225 C.ar      1 <0>        -0.0543
     17 C13         2.2963    3.7983   -0.1814 C.ar      1 <0>        -0.0722
     18 C14         2.2987    5.1580   -0.1861 C.ar      1 <0>        -0.1225
     19 C15         1.1016    5.8792   -0.1331 C.ar      1 <0>         0.1373
     20 O1          1.1363    7.2377   -0.1388 O.3       1 <0>        -0.2792
     21 C16         1.0019    7.8580    1.0496 C.2       1 <0>         0.5017
     22 O2          0.9495    7.2054    2.0729 O.2       1 <0>        -0.4847
     23 C17         0.9182    9.3316    1.1084 C.ar      1 <0>        -0.1314
     24 C18         0.9837   10.0851   -0.0654 C.ar      1 <0>        -0.0603
     25 C19         0.8991   11.4605   -0.0038 C.ar      1 <0>        -0.1326
     26 C20         0.7606   12.0943    1.2184 C.ar      1 <0>        -0.0783
     27 C21         0.7012   11.3541    2.3860 C.ar      1 <0>        -0.1300
     28 C22         0.7788    9.9776    2.3384 C.ar      1 <0>        -0.0520
     29 C23        -1.4716    6.2276   -2.5606 C.2       1 <0>         0.5354
     30 O3         -2.0918    6.1643   -3.6056 O.2       1 <0>        -0.5075
     31 O4         -0.1891    6.6474   -2.5616 O.3       1 <0>        -0.3348
     32 C24         0.3767    7.0014   -3.8251 C.3       1 <0>         0.0361
     33 H2         -3.7979    4.2221   -3.0817 H         1 <0>         0.1029
     34 H3         -5.1623    5.1618   -2.4308 H         1 <0>         0.0793
     35 H4         -3.8476    5.9878   -3.3012 H         1 <0>         0.1380
     36 H5         -1.7149    5.6987    2.0683 H         1 <0>         0.4502
     37 H6         -4.8439    4.6335   -0.1908 H         1 <0>         0.4454
     38 H7         -2.2919    3.6774    0.0307 H         1 <0>         0.1130
     39 H8         -2.2961    1.2417    0.0289 H         1 <0>         0.1257
     40 H9         -0.1898   -0.0216   -0.0551 H         1 <0>         0.1289
     41 H10         1.9539    1.1301   -0.1572 H         1 <0>         0.1334
     42 H11         3.2284    3.2543   -0.2231 H         1 <0>         0.1406
     43 H12         3.2383    5.6886   -0.2310 H         1 <0>         0.1369
     44 H13         1.0963    9.5919   -1.0196 H         1 <0>         0.1400
     45 H14         0.9452   12.0443   -0.9112 H         1 <0>         0.1342
     46 H15         0.6990   13.1717    1.2613 H         1 <0>         0.1323
     47 H16         0.5934   11.8551    3.3366 H         1 <0>         0.1359
     48 H17         0.7323    9.4011    3.2504 H         1 <0>         0.1392
     49 H18         1.4094    7.3205   -3.6842 H         1 <0>         0.1027
     50 H19         0.3508    6.1378   -4.4896 H         1 <0>         0.0602
     51 H20        -0.1984    7.8160   -4.2654 H         1 <0>         0.0615
@<TRIPOS>BOND
     1    1    2 1
     2    1   33 1
     3    1   34 1
     4    1   35 1
     5    2    9 1
     6    2    3 2
     7    3    4 1
     8    3   29 1
     9    4    5 1
    10    4    6 1
    11    4   10 1
    12    6    7 1
    13    6   36 1
    14    7    8 2
    15    7    9 1
    16    9   37 1
    17   10   19 ar
    18   10   11 ar
    19   11   16 ar
    20   11   12 ar
    21   12   13 ar
    22   12   38 1
    23   13   14 ar
    24   13   39 1
    25   14   15 ar
    26   14   40 1
    27   15   16 ar
    28   15   41 1
    29   16   17 ar
    30   17   18 ar
    31   17   42 1
    32   18   19 ar
    33   18   43 1
    34   19   20 1
    35   20   21 1
    36   21   22 2
    37   21   23 1
    38   23   28 ar
    39   23   24 ar
    40   24   25 ar
    41   24   44 1
    42   25   26 ar
    43   25   45 1
    44   26   27 ar
    45   26   46 1
    46   27   28 ar
    47   27   47 1
    48   28   48 1
    49   29   30 2
    50   29   31 1
    51   31   32 1
    52   32   49 1
    53   32   50 1
    54   32   51 1
@<TRIPOS>MOLECULE
ZINC15816936
   44    47     0     0     0
SMALL
USER_CHARGES
6-chloro-2-[[5-[(2,3-dimethylphenyl)amino]-1,3,4-thiadiazol-2-yl]sulfanylmethyl]-3H-quinazolin-4-one
@<TRIPOS>ATOM
      1 C1        -11.3772   -5.4973   -0.3512 C.3       1 <0>        -0.1185
      2 C2         -9.9278   -5.0984   -0.2443 C.ar      1 <0>        -0.0588
      3 C3         -8.9419   -6.0685   -0.2537 C.ar      1 <0>        -0.1382
      4 C4         -7.6109   -5.7070   -0.1549 C.ar      1 <0>        -0.0886
      5 C5         -7.2612   -4.3747   -0.0526 C.ar      1 <0>        -0.1569
      6 C6         -8.2491   -3.3983   -0.0376 C.ar      1 <0>         0.1607
      7 C7         -9.5857   -3.7651   -0.1366 C.ar      1 <0>        -0.1220
      8 C8        -10.6606   -2.7090   -0.1259 C.3       1 <0>        -0.1173
      9 N1         -7.8993   -2.0500    0.0711 N.pl3     1 <0>        -0.5988
     10 C9         -6.5654   -1.6683   -0.0203 C.2       1 <0>         0.3350
     11 N2         -5.5057   -2.3975   -0.3106 N.2       1 <0>        -0.3537
     12 N3         -4.2612   -1.8123   -0.3480 N.2       1 <0>        -0.2826
     13 C10        -4.1340   -0.5239   -0.0932 C.2       1 <0>         0.0206
     14 S1         -5.8285   -0.0605    0.2301 S.3       1 <0>         0.0243
     15 S2         -2.6803    0.4716   -0.0704 S.3       1 <0>         0.1559
     16 C11        -1.3482   -0.6873   -0.4861 C.3       1 <0>        -0.0997
     17 C12        -0.0314    0.0454   -0.5011 C.2       1 <0>         0.4204
     18 N4          1.0940   -0.6575   -0.7936 N.am      1 <0>        -0.6447
     19 H1          1.0318   -1.6063   -0.9854 H         1 <0>         0.4248
     20 C13         2.3011   -0.0458   -0.8195 C.2       1 <0>         0.5575
     21 O1          3.3173   -0.6631   -1.0804 O.2       1 <0>        -0.4954
     22 C14         2.3372    1.3935   -0.5207 C.ar      1 <0>        -0.1858
     23 C15         3.5283    2.1163   -0.5206 C.ar      1 <0>        -0.0301
     24 C16         3.5045    3.4645   -0.2329 C.ar      1 <0>        -0.0529
     25 C17         2.3048    4.1039    0.0563 C.ar      1 <0>        -0.0619
     26 C18         1.1178    3.4069    0.0611 C.ar      1 <0>        -0.0905
     27 C19         1.1164    2.0407   -0.2277 C.ar      1 <0>         0.1607
     28 N5         -0.0304    1.3158   -0.2334 N.2       1 <0>        -0.5089
     29 Cl1         4.9852    4.3707   -0.2311 Cl        1 <0>        -0.0520
     30 H2        -11.6698   -5.5253   -1.4008 H         1 <0>         0.0733
     31 H3        -11.5161   -6.4838    0.0912 H         1 <0>         0.0689
     32 H4        -11.9938   -4.7713    0.1786 H         1 <0>         0.0711
     33 H5         -9.2123   -7.1107   -0.3380 H         1 <0>         0.1244
     34 H6         -6.8436   -6.4670   -0.1625 H         1 <0>         0.1273
     35 H7         -6.2212   -4.0928    0.0196 H         1 <0>         0.1644
     36 H8        -10.8627   -2.3859   -1.1471 H         1 <0>         0.0743
     37 H9        -11.5701   -3.1206    0.3116 H         1 <0>         0.0799
     38 H10       -10.3266   -1.8564    0.4654 H         1 <0>         0.0566
     39 H11        -8.5870   -1.3802    0.2103 H         1 <0>         0.4293
     40 H12        -1.5353   -1.1183   -1.4697 H         1 <0>         0.1365
     41 H13        -1.3130   -1.4826    0.2584 H         1 <0>         0.1366
     42 H14         4.4633    1.6243   -0.7446 H         1 <0>         0.1511
     43 H15         2.3038    5.1606    0.2795 H         1 <0>         0.1490
     44 H16         0.1918    3.9144    0.2876 H         1 <0>         0.1544
@<TRIPOS>BOND
     1    1    2 1
     2    1   30 1
     3    1   31 1
     4    1   32 1
     5    2    7 ar
     6    2    3 ar
     7    3    4 ar
     8    3   33 1
     9    4    5 ar
    10    4   34 1
    11    5    6 ar
    12    5   35 1
    13    6    7 ar
    14    6    9 1
    15    7    8 1
    16    8   36 1
    17    8   37 1
    18    8   38 1
    19    9   10 1
    20    9   39 1
    21   10   14 1
    22   10   11 2
    23   11   12 1
    24   12   13 2
    25   13   14 1
    26   13   15 1
    27   15   16 1
    28   16   17 1
    29   16   40 1
    30   16   41 1
    31   17   28 2
    32   17   18 1
    33   18   19 1
    34   18   20 am
    35   20   21 2
    36   20   22 1
    37   22   27 ar
    38   22   23 ar
    39   23   24 ar
    40   23   42 1
    41   24   25 ar
    42   24   29 1
    43   25   26 ar
    44   25   43 1
    45   26   27 ar
    46   26   44 1
    47   27   28 1
@<TRIPOS>MOLECULE
ZINC24642252
   45    47     0     0     0
SMALL
USER_CHARGES
N-[(4R)-4-ethyl-2,5-dioxo-4-phenyl-imidazolidin-1-yl]-4-(trifluoromethylsulfanyl)benzamide
@<TRIPOS>ATOM
      1 C1         -1.2811    7.3930    0.7993 C.3       1 <0>        -0.1615
      2 C2         -1.2843    5.8631    0.8062 C.3       1 <0>        -0.1177
      3 C3         -0.0705    5.3471    0.0307 C.3       1 <0>         0.1711
      4 C4         -0.0729    5.8882   -1.3853 C.2       1 <0>         0.5373
      5 O1         -0.9167    5.7077   -2.2368 O.2       1 <0>        -0.4457
      6 N1          1.0578    6.6125   -1.5004 N.am      1 <0>        -0.3728
      7 C5          1.7668    6.6042   -0.3658 C.2       1 <0>         0.7190
      8 O2          2.8241    7.1870   -0.2256 O.2       1 <0>        -0.5241
      9 N2          1.1784    5.8792    0.6026 N.am      1 <0>        -0.7196
     10 N3          1.4428    7.2909   -2.6641 N.am      1 <0>        -0.5143
     11 C6          1.3260    8.6319   -2.7323 C.2       1 <0>         0.5718
     12 O3          0.8865    9.2529   -1.7837 O.2       1 <0>        -0.5056
     13 C7          1.7313    9.3461   -3.9573 C.ar      1 <0>        -0.1163
     14 C8          2.2423    8.6338   -5.0468 C.ar      1 <0>        -0.0570
     15 C9          2.6133    9.2998   -6.1862 C.ar      1 <0>        -0.1275
     16 C10         2.4920   10.6858   -6.2552 C.ar      1 <0>        -0.0778
     17 C11         1.9887   11.3986   -5.1693 C.ar      1 <0>        -0.0866
     18 C12         1.6107   10.7373   -4.0295 C.ar      1 <0>        -0.0307
     19 S1          2.9757   11.5390   -7.7190 S.3       1 <0>        -0.0072
     20 C13         3.5519   10.2215   -8.8248 C.3       1 <0>         0.4499
     21 F1          2.5079    9.3206   -9.0604 F         1 <0>        -0.1613
     22 F2          3.9688   10.7799  -10.0379 F         1 <0>        -0.1416
     23 F3          4.6235    9.5479   -8.2288 F         1 <0>        -0.1613
     24 C14        -0.0501    3.8402    0.0223 C.ar      1 <0>        -0.1029
     25 C15         1.1563    3.1654    0.0081 C.ar      1 <0>        -0.0996
     26 C16         1.1750    1.7832    0.0004 C.ar      1 <0>        -0.1179
     27 C17        -0.0126    1.0758    0.0080 C.ar      1 <0>        -0.1050
     28 C18        -1.2190    1.7506    0.0173 C.ar      1 <0>        -0.1167
     29 C19        -1.2377    3.1328    0.0294 C.ar      1 <0>        -0.0907
     30 H1         -2.1538    7.7640    1.3568 H         1 <0>         0.0717
     31 H2         -1.3279    7.7551   -0.2383 H         1 <0>         0.0538
     32 H3         -0.3593    7.7599    1.2745 H         1 <0>         0.0639
     33 H4         -1.2375    5.5010    1.8438 H         1 <0>         0.0954
     34 H5         -2.2061    5.4962    0.3311 H         1 <0>         0.0932
     35 H6          1.4509    5.6448    1.6422 H         1 <0>         0.4756
     36 H7          1.8404    6.7291   -3.5222 H         1 <0>         0.4497
     37 H8          2.3405    7.5597   -4.9923 H         1 <0>         0.1362
     38 H9          3.0039    8.7498   -7.0296 H         1 <0>         0.1341
     39 H10         1.8957   12.4731   -5.2256 H         1 <0>         0.1469
     40 H11         1.2198   11.2904   -3.1882 H         1 <0>         0.1524
     41 H12         2.0842    3.7181    0.0025 H         1 <0>         0.1241
     42 H13         2.1175    1.2560   -0.0111 H         1 <0>         0.1274
     43 H14         0.0021   -0.0041    0.0020 H         1 <0>         0.1270
     44 H15        -2.1469    1.1980    0.0188 H         1 <0>         0.1295
     45 H16        -2.1802    3.6600    0.0409 H         1 <0>         0.1312
@<TRIPOS>BOND
     1    1    2 1
     2    1   30 1
     3    1   31 1
     4    1   32 1
     5    2    3 1
     6    2   33 1
     7    2   34 1
     8    3    9 1
     9    3    4 1
    10    3   24 1
    11    4    5 2
    12    4    6 am
    13    6    7 am
    14    6   10 1
    15    7    8 2
    16    7    9 am
    17    9   35 1
    18   10   11 am
    19   10   36 1
    20   11   12 2
    21   11   13 1
    22   13   18 ar
    23   13   14 ar
    24   14   15 ar
    25   14   37 1
    26   15   16 ar
    27   15   38 1
    28   16   17 ar
    29   16   19 1
    30   17   18 ar
    31   17   39 1
    32   18   40 1
    33   19   20 1
    34   20   21 1
    35   20   22 1
    36   20   23 1
    37   24   29 ar
    38   24   25 ar
    39   25   26 ar
    40   25   41 1
    41   26   27 ar
    42   26   42 1
    43   27   28 ar
    44   27   43 1
    45   28   29 ar
    46   28   44 1
    47   29   45 1
@<TRIPOS>MOLECULE
ZINC38688053
   53    57     0     0     0
SMALL
USER_CHARGES

@<TRIPOS>ATOM
      1 C1         -0.2745    1.3339   -0.2690 C.3       1 <0>        -0.1190
      2 C2          0.4786    0.3488    0.5874 C.ar      1 <0>        -0.0366
      3 C3          1.7967    0.6101    0.9367 C.ar      1 <0>        -0.1381
      4 C4          2.4951   -0.2714    1.7124 C.ar      1 <0>        -0.0468
      5 C5          1.8772   -1.4431    2.1567 C.ar      1 <0>        -0.1567
      6 C6          2.3083   -2.5749    2.9759 C.2       1 <0>        -0.0447
      7 C7          1.2397   -3.4110    3.0548 C.2       1 <0>        -0.0321
      8 O1          0.2041   -2.8929    2.3616 O.3       1 <0>        -0.1710
      9 C8          0.5411   -1.7129    1.8060 C.ar      1 <0>         0.0899
     10 C9         -0.1506   -0.7984    1.0197 C.ar      1 <0>        -0.1183
     11 C10         1.2158   -4.6851    3.7833 C.2       1 <0>         0.5521
     12 O2          2.2063   -5.0640    4.3782 O.2       1 <0>        -0.4583
     13 O3          0.0952   -5.4356    3.7928 O.3       1 <0>        -0.2785
     14 C11         0.1482   -6.6537    4.3930 C.ar      1 <0>         0.1142
     15 C12         0.2371   -7.8050    3.6226 C.ar      1 <0>        -0.1201
     16 C13         0.2907   -9.0418    4.2339 C.ar      1 <0>        -0.0610
     17 C14         0.2557   -9.1398    5.6138 C.ar      1 <0>        -0.1143
     18 C15         0.1670   -7.9936    6.3879 C.ar      1 <0>         0.1324
     19 C16         0.1193   -6.7481    5.7748 C.ar      1 <0>        -0.1209
     20 O4          0.1316   -8.0693    7.7413 O.3       1 <0>        -0.2421
     21 C17         0.5602   -9.1810    8.3618 C.2       1 <0>         0.4436
     22 C18         0.6697  -10.3657    7.7153 C.2       1 <0>        -0.2796
     23 C19         0.3143  -10.4981    6.2611 C.3       1 <0>         0.0855
     24 H1          1.0676  -11.1052    5.7592 H         1 <0>         0.1047
     25 C20        -1.0289  -11.1697    6.1346 C.ar      1 <0>        -0.0882
     26 C21        -2.1513  -10.5783    6.6839 C.ar      1 <0>        -0.0724
     27 C22        -3.3836  -11.1930    6.5682 C.ar      1 <0>        -0.1507
     28 C23        -3.4938  -12.4016    5.9017 C.ar      1 <0>         0.0990
     29 C24        -2.3690  -12.9930    5.3520 C.ar      1 <0>        -0.1506
     30 C25        -1.1386  -12.3738    5.4644 C.ar      1 <0>        -0.0814
     31 F1         -4.6979  -13.0037    5.7883 F         1 <0>        -0.1393
     32 C26         1.1341  -11.5155    8.4314 C.1       1 <0>         0.2719
     33 N1          1.5025  -12.4276    8.9996 N.1       1 <0>        -0.4414
     34 N2          0.8975   -9.1139    9.6906 N.pl3     1 <0>        -0.8283
     35 C27         3.6631   -2.7741    3.6050 C.3       1 <0>        -0.1029
     36 H2         -0.7729    2.0635    0.3693 H         1 <0>         0.0794
     37 H3          0.4228    1.8469   -0.9313 H         1 <0>         0.0747
     38 H4         -1.0180    0.8039   -0.8643 H         1 <0>         0.0730
     39 H5          2.2732    1.5162    0.5927 H         1 <0>         0.1356
     40 H6          3.5204   -0.0636    1.9806 H         1 <0>         0.1341
     41 H7         -1.1777   -0.9886    0.7451 H         1 <0>         0.1388
     42 H8          0.2639   -7.7332    2.5453 H         1 <0>         0.1440
     43 H9          0.3599   -9.9364    3.6328 H         1 <0>         0.1471
     44 H10         0.0551   -5.8530    6.3756 H         1 <0>         0.1458
     45 H11        -2.0650   -9.6357    7.2040 H         1 <0>         0.1260
     46 H12        -4.2602  -10.7310    6.9977 H         1 <0>         0.1357
     47 H13        -2.4538  -13.9359    4.8322 H         1 <0>         0.1369
     48 H14        -0.2619  -12.8327    5.0319 H         1 <0>         0.1343
     49 H15         0.8248   -8.2724   10.1676 H         1 <0>         0.4126
     50 H16         1.2087   -9.9080   10.1527 H         1 <0>         0.4267
     51 H17         3.6695   -2.3325    4.6015 H         1 <0>         0.0856
     52 H18         3.8762   -3.8405    3.6787 H         1 <0>         0.0922
     53 H19         4.4236   -2.2933    2.9897 H         1 <0>         0.0777
@<TRIPOS>BOND
     1    1    2 1
     2    1   36 1
     3    1   37 1
     4    1   38 1
     5    2   10 ar
     6    2    3 ar
     7    3    4 ar
     8    3   39 1
     9    4    5 ar
    10    4   40 1
    11    5    9 ar
    12    5    6 1
    13    6    7 2
    14    6   35 1
    15    7    8 1
    16    7   11 1
    17    8    9 1
    18    9   10 ar
    19   10   41 1
    20   11   12 2
    21   11   13 1
    22   13   14 1
    23   14   19 ar
    24   14   15 ar
    25   15   16 ar
    26   15   42 1
    27   16   17 ar
    28   16   43 1
    29   17   23 1
    30   17   18 ar
    31   18   19 ar
    32   18   20 1
    33   19   44 1
    34   20   21 1
    35   21   22 2
    36   21   34 1
    37   22   23 1
    38   22   32 1
    39   23   24 1
    40   23   25 1
    41   25   30 ar
    42   25   26 ar
    43   26   27 ar
    44   26   45 1
    45   27   28 ar
    46   27   46 1
    47   28   29 ar
    48   28   31 1
    49   29   30 ar
    50   29   47 1
    51   30   48 1
    52   32   33 3
    53   34   49 1
    54   34   50 1
    55   35   51 1
    56   35   52 1
    57   35   53 1
@<TRIPOS>MOLECULE
ZINC60331664
   62    66     0     0     0
SMALL
USER_CHARGES

@<TRIPOS>ATOM
      1 C1          1.0899   -0.4595    0.7513 C.ar      1 <0>        -0.1779
      2 C2          2.2760    0.2468    0.7380 C.ar      1 <0>        -0.0670
      3 C3          2.3810    1.4137   -0.0073 C.ar      1 <0>         0.0796
      4 C4          1.2929    1.8707   -0.7389 C.ar      1 <0>        -0.0924
      5 C5          0.1064    1.1649   -0.7254 C.ar      1 <0>        -0.1811
      6 C6          0.0015   -0.0028    0.0193 C.ar      1 <0>         0.2099
      7 N1         -1.2003   -0.7186    0.0323 N.pl3     1 <0>        -0.7447
      8 C7         -2.3483   -0.2368   -0.7399 C.3       1 <0>         0.1530
      9 C8         -3.1225    0.7926    0.0858 C.3       1 <0>        -0.1347
     10 C9         -4.3214    1.2958   -0.7207 C.3       1 <0>        -0.1186
     11 C10        -5.2388    0.1189   -1.0587 C.3       1 <0>        -0.1229
     12 C11        -4.4646   -0.9105   -1.8844 C.3       1 <0>        -0.1164
     13 C12        -3.2657   -1.4137   -1.0779 C.3       1 <0>        -0.1266
     14 N2          3.5852    2.1306   -0.0207 N.am      1 <0>        -0.6673
     15 C13         4.7601    1.4760    0.0663 C.2       1 <0>         0.5200
     16 O1          4.7806    0.2632    0.0597 O.2       1 <0>        -0.5202
     17 C14         6.0483    2.2509    0.1717 C.3       1 <0>        -0.1573
     18 C15         7.2244    1.2759    0.2566 C.3       1 <0>         0.1067
     19 N3          8.4767    2.0292    0.3591 N.am      1 <0>        -0.5314
     20 C16         9.1342    2.3839   -0.7749 C.2       1 <0>         0.3845
     21 N4         10.2534    3.0557   -0.7256 N.2       1 <0>        -0.4891
     22 C17        10.7846    3.4140    0.4400 C.2       1 <0>         0.0991
     23 C18        10.1781    3.0931    1.6646 C.2       1 <0>        -0.2414
     24 C19         8.9493    2.3603    1.5752 C.2       1 <0>         0.5506
     25 O2          8.3448    2.0387    2.5836 O.2       1 <0>        -0.5161
     26 C20        10.8767    3.5514    2.8647 C.2       1 <0>        -0.0524
     27 C21        12.0269    4.2332    2.6805 C.2       1 <0>        -0.1675
     28 S1         12.2430    4.3031    0.9225 S.3       1 <0>         0.1458
     29 C22        12.9222    4.8048    3.7371 C.3       1 <0>        -0.0377
     30 C23        12.1524    4.8251    5.0655 C.3       1 <0>        -0.1151
     31 C24        11.4900    3.4597    5.2705 C.3       1 <0>        -0.1235
     32 C25        10.3471    3.2814    4.2704 C.3       1 <0>        -0.0587
     33 H1          1.0097   -1.3695    1.3274 H         1 <0>         0.1230
     34 H2          3.1223   -0.1081    1.3075 H         1 <0>         0.1328
     35 H3          1.3746    2.7785   -1.3182 H         1 <0>         0.1234
     36 H4         -0.7400    1.5205   -1.2941 H         1 <0>         0.1252
     37 H5         -1.2736   -1.5340    0.5527 H         1 <0>         0.3986
     38 H6         -1.9972    0.2267   -1.6619 H         1 <0>         0.0783
     39 H7         -3.4736    0.3291    1.0077 H         1 <0>         0.0645
     40 H8         -2.4689    1.6310    0.3266 H         1 <0>         0.0657
     41 H9         -4.8730    2.0292   -0.1325 H         1 <0>         0.0647
     42 H10        -3.9703    1.7593   -1.6427 H         1 <0>         0.0628
     43 H11        -5.5899   -0.3446   -0.1368 H         1 <0>         0.0626
     44 H12        -6.0929    0.4774   -1.6333 H         1 <0>         0.0640
     45 H13        -5.1182   -1.7489   -2.1252 H         1 <0>         0.0670
     46 H14        -4.1135   -0.4470   -2.8064 H         1 <0>         0.0645
     47 H15        -2.7141   -2.1471   -1.6661 H         1 <0>         0.0683
     48 H16        -3.6168   -1.8772   -0.1559 H         1 <0>         0.0669
     49 H17         3.5730    3.0978   -0.0926 H         1 <0>         0.4093
     50 H18         6.1643    2.8843   -0.7078 H         1 <0>         0.1036
     51 H19         6.0263    2.8724    1.0668 H         1 <0>         0.1064
     52 H20         7.1084    0.6425    1.1360 H         1 <0>         0.1141
     53 H21         7.2465    0.6544   -0.6385 H         1 <0>         0.1096
     54 H22         8.7246    2.1053   -1.7346 H         1 <0>         0.2170
     55 H23        13.8129    4.1847    3.8385 H         1 <0>         0.0865
     56 H24        13.2103    5.8201    3.4643 H         1 <0>         0.0846
     57 H25        12.8430    5.0232    5.8852 H         1 <0>         0.0763
     58 H26        11.3877    5.6012    5.0330 H         1 <0>         0.0692
     59 H27        12.2288    2.6725    5.1203 H         1 <0>         0.0661
     60 H28        11.0965    3.3967    6.2851 H         1 <0>         0.0718
     61 H29         9.5470    3.9849    4.5007 H         1 <0>         0.0783
     62 H30         9.9672    2.2614    4.3279 H         1 <0>         0.0857
@<TRIPOS>BOND
     1    1    6 ar
     2    1    2 ar
     3    1   33 1
     4    2    3 ar
     5    2   34 1
     6    3    4 ar
     7    3   14 1
     8    4    5 ar
     9    4   35 1
    10    5    6 ar
    11    5   36 1
    12    6    7 1
    13    7    8 1
    14    7   37 1
    15    8   13 1
    16    8    9 1
    17    8   38 1
    18    9   10 1
    19    9   39 1
    20    9   40 1
    21   10   11 1
    22   10   41 1
    23   10   42 1
    24   11   12 1
    25   11   43 1
    26   11   44 1
    27   12   13 1
    28   12   45 1
    29   12   46 1
    30   13   47 1
    31   13   48 1
    32   14   15 am
    33   14   49 1
    34   15   16 2
    35   15   17 1
    36   17   18 1
    37   17   50 1
    38   17   51 1
    39   18   19 1
    40   18   52 1
    41   18   53 1
    42   19   24 am
    43   19   20 1
    44   20   21 2
    45   20   54 1
    46   21   22 1
    47   22   28 1
    48   22   23 2
    49   23   24 1
    50   23   26 1
    51   24   25 2
    52   26   32 1
    53   26   27 2
    54   27   28 1
    55   27   29 1
    56   29   30 1
    57   29   55 1
    58   29   56 1
    59   30   31 1
    60   30   57 1
    61   30   58 1
    62   31   32 1
    63   31   59 1
    64   31   60 1
    65   32   61 1
    66   32   62 1
@<TRIPOS>MOLECULE
ZINC02725337
   38    40     0     0     0
SMALL
USER_CHARGES
3-[5-chloro-2-(trifluoromethyl)benzo[1,3]dioxol-2-yl]-1-(2-methylsulfanylphenyl)-urea
@<TRIPOS>ATOM
      1 C1         -2.5492    0.8798   -8.4307 C.3       1 <0>        -0.1362
      2 S1         -2.9686    1.3274   -6.7236 S.3       1 <0>        -0.1308
      3 C2         -1.5348    2.1683   -6.1389 C.ar      1 <0>        -0.1141
      4 C3         -0.4407    2.3423   -6.9746 C.ar      1 <0>        -0.1118
      5 C4          0.6851    2.9968   -6.5116 C.ar      1 <0>        -0.1158
      6 C5          0.7230    3.4854   -5.2184 C.ar      1 <0>        -0.0981
      7 C6         -0.3646    3.3212   -4.3806 C.ar      1 <0>        -0.1094
      8 C7         -1.4980    2.6656   -4.8361 C.ar      1 <0>         0.1827
      9 N1         -2.6016    2.4977   -3.9880 N.am      1 <0>        -0.6646
     10 C8         -2.4301    2.4967   -2.6512 C.2       1 <0>         0.7130
     11 O1         -1.3092    2.5384   -2.1819 O.2       1 <0>        -0.5351
     12 N2         -3.5012    2.4495   -1.8344 N.am      1 <0>        -0.7311
     13 C9         -3.3149    2.4484   -0.3813 C.3       1 <0>         0.4407
     14 O2         -2.5225    1.3174    0.0263 O.3       1 <0>        -0.2772
     15 C10        -1.2300    1.7571    0.0212 C.ar      1 <0>         0.0636
     16 C11        -0.0266    1.0708    0.0152 C.ar      1 <0>        -0.0733
     17 C12         1.1674    1.7674    0.0051 C.ar      1 <0>        -0.0921
     18 C13         1.1643    3.1510    0.0071 C.ar      1 <0>        -0.0193
     19 C14        -0.0339    3.8424    0.0188 C.ar      1 <0>        -0.0815
     20 C15        -1.2337    3.1498    0.0285 C.ar      1 <0>         0.0808
     21 O3         -2.5282    3.5826    0.0410 O.3       1 <0>        -0.2757
     22 Cl1         2.6665    4.0209   -0.0055 Cl        1 <0>        -0.0534
     23 C16        -4.6666    2.4441    0.3354 C.3       1 <0>         0.4972
     24 F1         -4.4613    2.4924    1.7184 F         1 <0>        -0.1440
     25 F2         -5.4102    3.5595   -0.0649 F         1 <0>        -0.1502
     26 F3         -5.3644    1.2766    0.0081 F         1 <0>        -0.1496
     27 H1         -1.6678    0.2384   -8.4321 H         1 <0>         0.0865
     28 H2         -3.3863    0.3479   -8.8830 H         1 <0>         0.1116
     29 H3         -2.3415    1.7840   -9.0029 H         1 <0>         0.0862
     30 H4         -0.4672    1.9626   -7.9853 H         1 <0>         0.1279
     31 H5          1.5375    3.1275   -7.1617 H         1 <0>         0.1283
     32 H6          1.6050    3.9965   -4.8617 H         1 <0>         0.1307
     33 H7         -0.3312    3.7042   -3.3713 H         1 <0>         0.1526
     34 H8         -3.4885    2.3823   -4.3633 H         1 <0>         0.4117
     35 H9         -4.3955    2.4162   -2.2088 H         1 <0>         0.4176
     36 H10        -0.0212   -0.0091    0.0140 H         1 <0>         0.1424
     37 H11         2.1045    1.2306   -0.0040 H         1 <0>         0.1473
     38 H12        -0.0339    4.9224    0.0199 H         1 <0>         0.1426
@<TRIPOS>BOND
     1    1    2 1
     2    1   27 1
     3    1   28 1
     4    1   29 1
     5    2    3 1
     6    3    8 ar
     7    3    4 ar
     8    4    5 ar
     9    4   30 1
    10    5    6 ar
    11    5   31 1
    12    6    7 ar
    13    6   32 1
    14    7    8 ar
    15    7   33 1
    16    8    9 1
    17    9   10 am
    18    9   34 1
    19   10   11 2
    20   10   12 am
    21   12   13 1
    22   12   35 1
    23   13   21 1
    24   13   14 1
    25   13   23 1
    26   14   15 1
    27   15   20 ar
    28   15   16 ar
    29   16   17 ar
    30   16   36 1
    31   17   18 ar
    32   17   37 1
    33   18   19 ar
    34   18   22 1
    35   19   20 ar
    36   19   38 1
    37   20   21 1
    38   23   24 1
    39   23   25 1
    40   23   26 1
@<TRIPOS>MOLECULE
ZINC29763578
   39    42     0     0     0
SMALL
USER_CHARGES
7-chloro-N-[[3-(4-fluorophenyl)-1H-pyrazol-4-yl]methyleneamino]quinolin-4-amine
@<TRIPOS>ATOM
      1 C1         -4.7292    9.9953   -1.1276 C.ar      1 <0>        -0.0679
      2 C2         -5.7622   10.9027   -1.2413 C.ar      1 <0>        -0.1505
      3 C3         -5.5870   12.2113   -0.8211 C.ar      1 <0>         0.1129
      4 C4         -4.3765   12.6135   -0.2802 C.ar      1 <0>        -0.1522
      5 C5         -3.3396   11.7118   -0.1577 C.ar      1 <0>        -0.0581
      6 C6         -3.5112   10.3941   -0.5791 C.ar      1 <0>        -0.0320
      7 C7         -2.3998    9.4214   -0.4501 C.2       1 <0>         0.1430
      8 C8         -2.5190    8.0039   -0.1007 C.2       1 <0>        -0.2413
      9 C9         -1.2496    7.4953   -0.0905 C.2       1 <0>         0.0580
     10 N1         -0.3994    8.4892   -0.4118 N.pl3     1 <0>        -0.4705
     11 H1          0.6813    8.2919   -0.4680 H         1 <0>         0.4792
     12 N2         -1.1199    9.6680   -0.6268 N.2       1 <0>        -0.2507
     13 C10        -3.7643    7.2700    0.1897 C.2       1 <0>         0.1509
     14 N3         -3.7110    6.0758    0.6960 N.2       1 <0>        -0.2470
     15 N4         -2.5576    5.6509    1.3684 N.pl3     1 <0>        -0.5830
     16 C11        -2.4444    4.3356    1.7854 C.ar      1 <0>         0.2749
     17 C12        -3.4994    3.4456    1.6419 C.ar      1 <0>        -0.2346
     18 C13        -3.3549    2.1340    2.0701 C.ar      1 <0>         0.1738
     19 N5         -2.2402    1.7005    2.6127 N.ar      1 <0>        -0.5119
     20 C14        -1.1810    2.5011    2.7778 C.ar      1 <0>         0.1752
     21 C15        -1.2486    3.8556    2.3722 C.ar      1 <0>        -0.1449
     22 C16        -0.1378    4.6911    2.5515 C.ar      1 <0>        -0.0806
     23 C17         0.9958    4.1927    3.1197 C.ar      1 <0>        -0.1194
     24 C18         1.0646    2.8610    3.5257 C.ar      1 <0>        -0.0101
     25 C19         0.0024    2.0227    3.3654 C.ar      1 <0>        -0.0861
     26 Cl1         2.5259    2.2613    4.2459 Cl        1 <0>        -0.0585
     27 F1         -6.5995   13.0979   -0.9396 F         1 <0>        -0.1346
     28 H2         -4.8653    8.9765   -1.4592 H         1 <0>         0.1413
     29 H3         -6.7074   10.5937   -1.6627 H         1 <0>         0.1443
     30 H4         -4.2443   13.6347    0.0457 H         1 <0>         0.1420
     31 H5         -2.3962   12.0263    0.2637 H         1 <0>         0.1379
     32 H6         -0.9769    6.4746    0.1334 H         1 <0>         0.1826
     33 H7         -4.7386    7.7344   -0.0227 H         1 <0>         0.1910
     34 H8         -1.7420    6.3624    1.5650 H         1 <0>         0.4073
     35 H9         -4.4287    3.7726    1.1994 H         1 <0>         0.1479
     36 H10        -4.1824    1.4498    1.9536 H         1 <0>         0.1629
     37 H11        -0.1802    5.7247    2.2413 H         1 <0>         0.1219
     38 H12         1.8514    4.8373    3.2575 H         1 <0>         0.1382
     39 H13         0.0713    0.9933    3.6848 H         1 <0>         0.1491
@<TRIPOS>BOND
     1    1    6 ar
     2    1    2 ar
     3    1   28 1
     4    2    3 ar
     5    2   29 1
     6    3    4 ar
     7    3   27 1
     8    4    5 ar
     9    4   30 1
    10    5    6 ar
    11    5   31 1
    12    6    7 1
    13    7   12 2
    14    7    8 1
    15    8    9 2
    16    8   13 1
    17    9   10 1
    18    9   32 1
    19   10   11 1
    20   10   12 1
    21   13   14 2
    22   13   33 1
    23   14   15 1
    24   15   16 1
    25   15   34 1
    26   16   21 ar
    27   16   17 ar
    28   17   18 ar
    29   17   35 1
    30   18   19 ar
    31   18   36 1
    32   19   20 ar
    33   20   25 ar
    34   20   21 ar
    35   21   22 ar
    36   22   23 ar
    37   22   37 1
    38   23   24 ar
    39   23   38 1
    40   24   25 ar
    41   24   26 1
    42   25   39 1
@<TRIPOS>MOLECULE
ZINC38649145
   50    53     0     0     0
SMALL
USER_CHARGES

@<TRIPOS>ATOM
      1 C1          0.2181    1.4758   -0.4611 C.3       1 <0>        -0.1165
      2 C2          0.1840   -0.0275   -0.3617 C.ar      1 <0>        -0.0846
      3 C3          0.1431   -0.7954   -1.5104 C.ar      1 <0>        -0.1188
      4 C4          0.1117   -2.1744   -1.4191 C.ar      1 <0>        -0.1071
      5 C5          0.1217   -2.7855   -0.1792 C.ar      1 <0>        -0.0829
      6 C6          0.1635   -2.0175    0.9695 C.ar      1 <0>        -0.0958
      7 C7          0.1992   -0.6387    0.8781 C.ar      1 <0>        -0.1185
      8 C8          0.0865   -4.2888   -0.0797 C.3       1 <0>         0.0843
      9 H1          0.0557   -4.7163   -1.0819 H         1 <0>         0.1014
     10 C9          1.3238   -4.7708    0.6304 C.ar      1 <0>        -0.1140
     11 C10         2.5289   -4.8041   -0.0490 C.ar      1 <0>        -0.0593
     12 C11         3.6737   -5.2429    0.5861 C.ar      1 <0>        -0.1292
     13 C12         3.6182   -5.6531    1.9110 C.ar      1 <0>         0.1187
     14 C13         2.4133   -5.6210    2.5938 C.ar      1 <0>        -0.1223
     15 C14         1.2626   -5.1795    1.9534 C.ar      1 <0>         0.1321
     16 O1          0.0910   -5.1544    2.6356 O.3       1 <0>        -0.2425
     17 C15        -1.0731   -5.1105    1.9665 C.2       1 <0>         0.4407
     18 C16        -1.1410   -4.7089    0.6787 C.2       1 <0>        -0.2754
     19 C17        -2.4137   -4.6841    0.0229 C.1       1 <0>         0.2727
     20 N1         -3.4233   -4.6645   -0.4975 N.1       1 <0>        -0.4433
     21 N2         -2.2261   -5.4843    2.6108 N.pl3     1 <0>        -0.8301
     22 O2          4.7441   -6.0858    2.5372 O.3       1 <0>        -0.2882
     23 C18         5.7048   -5.1810    2.8080 C.2       1 <0>         0.5100
     24 O3          5.5082   -4.0023    2.5891 O.2       1 <0>        -0.4802
     25 C19         6.9973   -5.6220    3.3710 C.ar      1 <0>        -0.1227
     26 C20         7.2288   -6.9768    3.6184 C.ar      1 <0>        -0.0670
     27 C21         8.4380   -7.3818    4.1437 C.ar      1 <0>        -0.1273
     28 C22         9.4206   -6.4490    4.4260 C.ar      1 <0>        -0.0808
     29 C23         9.1979   -5.1053    4.1834 C.ar      1 <0>        -0.0957
     30 C24         7.9950   -4.6870    3.6528 C.ar      1 <0>        -0.0534
     31 C25        10.2738   -4.0969    4.4940 C.3       1 <0>        -0.1173
     32 H2          1.2534    1.8133   -0.5100 H         1 <0>         0.0710
     33 H3         -0.3101    1.7926   -1.3604 H         1 <0>         0.0662
     34 H4         -0.2642    1.9090    0.4151 H         1 <0>         0.0658
     35 H5          0.1353   -0.3180   -2.4791 H         1 <0>         0.1221
     36 H6          0.0791   -2.7744   -2.3166 H         1 <0>         0.1223
     37 H7          0.1709   -2.4949    1.9382 H         1 <0>         0.1147
     38 H8          0.2355   -0.0388    1.7755 H         1 <0>         0.1208
     39 H9          2.5742   -4.4852   -1.0798 H         1 <0>         0.1437
     40 H10         4.6121   -5.2673    0.0520 H         1 <0>         0.1373
     41 H11         2.3686   -5.9398    3.6247 H         1 <0>         0.1483
     42 H12        -2.1925   -5.7747    3.5357 H         1 <0>         0.4119
     43 H13        -3.0744   -5.4581    2.1411 H         1 <0>         0.4260
     44 H14         6.4626   -7.7057    3.3992 H         1 <0>         0.1399
     45 H15         8.6184   -8.4292    4.3356 H         1 <0>         0.1349
     46 H16        10.3654   -6.7714    4.8380 H         1 <0>         0.1317
     47 H17         7.8241   -3.6382    3.4596 H         1 <0>         0.1390
     48 H18        10.9098   -3.9629    3.6189 H         1 <0>         0.0752
     49 H19         9.8139   -3.1446    4.7582 H         1 <0>         0.0708
     50 H20        10.8760   -4.4537    5.3296 H         1 <0>         0.0714
@<TRIPOS>BOND
     1    1    2 1
     2    1   32 1
     3    1   33 1
     4    1   34 1
     5    2    7 ar
     6    2    3 ar
     7    3    4 ar
     8    3   35 1
     9    4    5 ar
    10    4   36 1
    11    5    6 ar
    12    5    8 1
    13    6    7 ar
    14    6   37 1
    15    7   38 1
    16    8    9 1
    17    8   18 1
    18    8   10 1
    19   10   15 ar
    20   10   11 ar
    21   11   12 ar
    22   11   39 1
    23   12   13 ar
    24   12   40 1
    25   13   14 ar
    26   13   22 1
    27   14   15 ar
    28   14   41 1
    29   15   16 1
    30   16   17 1
    31   17   18 2
    32   17   21 1
    33   18   19 1
    34   19   20 3
    35   21   42 1
    36   21   43 1
    37   22   23 1
    38   23   24 2
    39   23   25 1
    40   25   30 ar
    41   25   26 ar
    42   26   27 ar
    43   26   44 1
    44   27   28 ar
    45   27   45 1
    46   28   29 ar
    47   28   46 1
    48   29   30 ar
    49   29   31 1
    50   30   47 1
    51   31   48 1
    52   31   49 1
    53   31   50 1
@<TRIPOS>MOLECULE
ZINC48523123
   51    52     0     0     0
SMALL
USER_CHARGES

@<TRIPOS>ATOM
      1 C1         -0.5396    1.1343   -0.2944 C.3       1 <0>        -0.1486
      2 C2          0.2582   -0.1042    0.1188 C.3       1 <0>        -0.0216
      3 C3          0.9664    0.1655    1.4479 C.3       1 <0>        -0.1429
      4 C4         -0.6919   -1.2927    0.2791 C.3       1 <0>        -0.1430
      5 C5          1.2821   -0.4189   -0.9412 C.ar      1 <0>        -0.0897
      6 C6          1.3798    0.3777   -2.0614 C.ar      1 <0>        -0.0779
      7 C7          2.3300    0.0851   -3.0434 C.ar      1 <0>        -0.1140
      8 C8          3.1770   -1.0150   -2.8844 C.ar      1 <0>        -0.1168
      9 C9          3.0720   -1.8059   -1.7608 C.ar      1 <0>        -0.0857
     10 C10         2.1297   -1.5081   -0.7849 C.ar      1 <0>         0.1351
     11 O1          2.0332   -2.2876    0.3236 O.3       1 <0>        -0.4832
     12 C11         3.9849   -2.9925   -1.5881 C.3       1 <0>        -0.0209
     13 C12         4.9241   -3.0928   -2.7917 C.3       1 <0>        -0.1483
     14 C13         4.8093   -2.8200   -0.3108 C.3       1 <0>        -0.1425
     15 C14         3.1480   -4.2693   -1.4864 C.3       1 <0>        -0.1417
     16 C15         2.4381    0.9339   -4.2438 C.2       1 <0>         0.1234
     17 N1          3.1046    0.5160   -5.2764 N.2       1 <0>        -0.2282
     18 N2          3.2455   -0.8582   -5.5100 N.am      1 <0>        -0.5758
     19 C16         4.0446   -1.2944   -6.5038 C.2       1 <0>         0.6172
     20 O2          4.6440   -0.4943   -7.1985 O.2       1 <0>        -0.4803
     21 C17         4.1920   -2.7323   -6.7482 C.2       1 <0>        -0.0877
     22 C18         4.9694   -3.3069   -7.7130 C.2       1 <0>        -0.1046
     23 C19         4.8110   -4.6957   -7.5848 C.2       1 <0>        -0.2226
     24 C20         3.9550   -4.9055   -6.5605 C.2       1 <0>         0.0023
     25 O3          3.5881   -3.7202   -6.0557 O.3       1 <0>        -0.1664
     26 H1          0.1373    1.9810   -0.4087 H         1 <0>         0.0605
     27 H2         -1.0441    0.9422   -1.2413 H         1 <0>         0.0590
     28 H3         -1.2801    1.3619    0.4722 H         1 <0>         0.0615
     29 H4          0.2259    0.3932    2.2146 H         1 <0>         0.0561
     30 H5          1.5348   -0.7168    1.7423 H         1 <0>         0.0749
     31 H6          1.6433    1.0122    1.3337 H         1 <0>         0.0522
     32 H7         -1.1964   -1.4848   -0.6678 H         1 <0>         0.0549
     33 H8         -0.1235   -2.1750    0.5735 H         1 <0>         0.0579
     34 H9         -1.4324   -1.0650    1.0458 H         1 <0>         0.0626
     35 H10         0.7229    1.2266   -2.1803 H         1 <0>         0.1404
     36 H11         3.9126   -1.2451   -3.6410 H         1 <0>         0.1373
     37 H12         1.4191   -3.0288    0.2309 H         1 <0>         0.3847
     38 H13         5.5203   -2.1832   -2.8642 H         1 <0>         0.0554
     39 H14         5.5844   -3.9511   -2.6667 H         1 <0>         0.0631
     40 H15         4.3368   -3.2157   -3.7016 H         1 <0>         0.0566
     41 H16         4.1402   -2.7485    0.5467 H         1 <0>         0.0767
     42 H17         5.4696   -3.6782   -0.1859 H         1 <0>         0.0564
     43 H18         5.4056   -1.9104   -0.3833 H         1 <0>         0.0511
     44 H19         2.5607   -4.3922   -2.3963 H         1 <0>         0.0551
     45 H20         3.8083   -5.1275   -1.3614 H         1 <0>         0.0629
     46 H21         2.4789   -4.1977   -0.6289 H         1 <0>         0.0588
     47 H22         1.9628    1.9035   -4.2641 H         1 <0>         0.1908
     48 H23         2.7679   -1.4957   -4.9564 H         1 <0>         0.3976
     49 H24         5.5861   -2.7924   -8.4350 H         1 <0>         0.1640
     50 H25         5.2842   -5.4540   -8.1910 H         1 <0>         0.1609
     51 H26         3.6242   -5.8701   -6.2048 H         1 <0>         0.2131
@<TRIPOS>BOND
     1    1    2 1
     2    1   26 1
     3    1   27 1
     4    1   28 1
     5    2    3 1
     6    2    4 1
     7    2    5 1
     8    3   29 1
     9    3   30 1
    10    3   31 1
    11    4   32 1
    12    4   33 1
    13    4   34 1
    14    5   10 ar
    15    5    6 ar
    16    6    7 ar
    17    6   35 1
    18    7    8 ar
    19    7   16 1
    20    8    9 ar
    21    8   36 1
    22    9   10 ar
    23    9   12 1
    24   10   11 1
    25   11   37 1
    26   12   13 1
    27   12   14 1
    28   12   15 1
    29   13   38 1
    30   13   39 1
    31   13   40 1
    32   14   41 1
    33   14   42 1
    34   14   43 1
    35   15   44 1
    36   15   45 1
    37   15   46 1
    38   16   17 2
    39   16   47 1
    40   17   18 1
    41   18   19 am
    42   18   48 1
    43   19   20 2
    44   19   21 1
    45   21   25 1
    46   21   22 2
    47   22   23 1
    48   22   49 1
    49   23   24 2
    50   23   50 1
    51   24   25 1
    52   24   51 1
@<TRIPOS>MOLECULE
ZINC62508287
   48    51     0     0     0
SMALL
USER_CHARGES

@<TRIPOS>ATOM
      1 C1         -0.1835    1.3397   -0.6335 C.ar      1 <0>        -0.0853
      2 C2          0.3172    2.1784    0.3458 C.ar      1 <0>        -0.1407
      3 C3          0.9864    1.6463    1.4366 C.ar      1 <0>         0.1144
      4 C4          1.1549    0.2686    1.5465 C.ar      1 <0>         0.0400
      5 C5          0.6499   -0.5703    0.5609 C.ar      1 <0>         0.1651
      6 C6         -0.0196   -0.0285   -0.5290 C.ar      1 <0>        -0.1303
      7 N1          0.8157   -1.9579    0.6656 N.am      1 <0>        -0.6583
      8 C7         -0.0302   -2.7880    0.0239 C.2       1 <0>         0.5265
      9 O1         -0.9000   -2.3346   -0.6897 O.2       1 <0>        -0.5060
     10 C8          0.1045   -4.2794    0.1929 C.3       1 <0>        -0.0546
     11 H1          0.6421   -4.4933    1.1167 H         1 <0>         0.1024
     12 C9         -1.2656   -4.9040    0.2530 C.ar      1 <0>        -0.0762
     13 C10        -2.1332   -4.7705   -0.8149 C.ar      1 <0>        -0.0711
     14 C11        -3.3900   -5.3431   -0.7604 C.ar      1 <0>        -0.1128
     15 C12        -3.7797   -6.0500    0.3632 C.ar      1 <0>        -0.0295
     16 C13        -2.9110   -6.1832    1.4317 C.ar      1 <0>        -0.1137
     17 C14        -1.6523   -5.6149    1.3737 C.ar      1 <0>        -0.0964
     18 Cl1        -5.3583   -6.7689    0.4327 Cl        1 <0>        -0.0696
     19 C15         0.8778   -4.8593   -0.9931 C.3       1 <0>        -0.0772
     20 C16         1.0837   -6.3758   -0.7991 C.3       1 <0>        -0.1147
     21 C17         2.5011   -6.6420   -1.3641 C.3       1 <0>        -0.1263
     22 C18         3.2899   -5.3875   -0.9133 C.3       1 <0>        -0.1243
     23 C19         2.2805   -4.2310   -1.0657 C.3       1 <0>        -0.1267
     24 O2          1.8158   -0.2420    2.6205 O.3       1 <0>        -0.3022
     25 C20         2.8708    0.5554    3.1646 C.3       1 <0>         0.0500
     26 C21         2.4042    1.9817    3.3089 C.2       1 <0>         0.4907
     27 O3          2.8395    2.6774    4.2021 O.2       1 <0>        -0.5072
     28 N2          1.4997    2.4818    2.4391 N.am      1 <0>        -0.6585
     29 H2         -0.7084    1.7554   -1.4809 H         1 <0>         0.1382
     30 H3          0.1871    3.2472    0.2603 H         1 <0>         0.1352
     31 H4         -0.4134   -0.6782   -1.2965 H         1 <0>         0.1679
     32 H5          1.5393   -2.3209    1.2000 H         1 <0>         0.4159
     33 H6         -1.8291   -4.2184   -1.6919 H         1 <0>         0.1395
     34 H7         -4.0679   -5.2384   -1.5947 H         1 <0>         0.1343
     35 H8         -3.2147   -6.7346    2.3093 H         1 <0>         0.1344
     36 H9         -0.9724   -5.7229    2.2058 H         1 <0>         0.1317
     37 H10         0.3358   -4.6709   -1.9199 H         1 <0>         0.0854
     38 H11         1.0400   -6.6344    0.2589 H         1 <0>         0.0704
     39 H12         0.3373   -6.9371   -1.3612 H         1 <0>         0.0697
     40 H13         2.9280   -7.5446   -0.9268 H         1 <0>         0.0688
     41 H14         2.4765   -6.7127   -2.4515 H         1 <0>         0.0682
     42 H15         3.6025   -5.4866    0.1262 H         1 <0>         0.0671
     43 H16         4.1536   -5.2277   -1.5588 H         1 <0>         0.0669
     44 H17         2.4196   -3.7384   -2.0281 H         1 <0>         0.0698
     45 H18         2.4104   -3.5129   -0.2560 H         1 <0>         0.0616
     46 H19         3.1533    0.1653    4.1424 H         1 <0>         0.1480
     47 H20         3.7325    0.5211    2.4979 H         1 <0>         0.1011
     48 H21         1.2094    3.4049    2.5072 H         1 <0>         0.4188
@<TRIPOS>BOND
     1    1    6 ar
     2    1    2 ar
     3    1   29 1
     4    2    3 ar
     5    2   30 1
     6    3   28 1
     7    3    4 ar
     8    4    5 ar
     9    4   24 1
    10    5    6 ar
    11    5    7 1
    12    6   31 1
    13    7    8 am
    14    7   32 1
    15    8    9 2
    16    8   10 1
    17   10   11 1
    18   10   12 1
    19   10   19 1
    20   12   17 ar
    21   12   13 ar
    22   13   14 ar
    23   13   33 1
    24   14   15 ar
    25   14   34 1
    26   15   16 ar
    27   15   18 1
    28   16   17 ar
    29   16   35 1
    30   17   36 1
    31   19   23 1
    32   19   20 1
    33   19   37 1
    34   20   21 1
    35   20   38 1
    36   20   39 1
    37   21   22 1
    38   21   40 1
    39   21   41 1
    40   22   23 1
    41   22   42 1
    42   22   43 1
    43   23   44 1
    44   23   45 1
    45   24   25 1
    46   25   26 1
    47   25   46 1
    48   25   47 1
    49   26   27 2
    50   26   28 am
    51   28   48 1
@<TRIPOS>MOLECULE
ZINC05955512
   45    48     0     0     0
SMALL
USER_CHARGES
3-(2,4-difluorophenyl)-1-[3-(4-fluorophenyl)-1-phenyl-pyrazol-4-yl]-urea
@<TRIPOS>ATOM
      1 C1         -5.0717    0.5233   -0.0097 C.ar      1 <0>        -0.1270
      2 C2         -4.8030    1.8798   -0.0130 C.ar      1 <0>        -0.0952
      3 C3         -3.4961    2.3264   -0.0150 C.ar      1 <0>        -0.1200
      4 C4         -2.4513    1.4116   -0.0137 C.ar      1 <0>         0.1609
      5 C5         -2.7245    0.0500   -0.0158 C.ar      1 <0>        -0.1364
      6 C6         -4.0336   -0.3902   -0.0080 C.ar      1 <0>        -0.0915
      7 N1         -1.1247    1.8613   -0.0163 N.pl3     1 <0>        -0.3127
      8 C7         -0.0133    1.0741   -0.0154 C.2       1 <0>         0.0485
      9 C8          1.0701    1.8882   -0.0240 C.2       1 <0>         0.0309
     10 C9          0.6070    3.2228   -0.0248 C.2       1 <0>         0.1122
     11 N2         -0.7096    3.1989   -0.0168 N.2       1 <0>        -0.2563
     12 C10         1.4558    4.4391   -0.0331 C.ar      1 <0>        -0.0267
     13 C11         2.6673    4.4506    0.6560 C.ar      1 <0>        -0.0802
     14 C12         3.4560    5.5827    0.6415 C.ar      1 <0>        -0.1476
     15 C13         3.0405    6.7101   -0.0483 C.ar      1 <0>         0.1105
     16 C14         1.8345    6.7049   -0.7303 C.ar      1 <0>        -0.1481
     17 C15         1.0417    5.5758   -0.7252 C.ar      1 <0>        -0.0568
     18 F1          3.8135    7.8181   -0.0555 F         1 <0>        -0.1344
     19 N3          2.4153    1.4777   -0.0306 N.am      1 <0>        -0.6463
     20 C16         2.7192    0.1646   -0.0290 C.2       1 <0>         0.7110
     21 O1          1.8302   -0.6652   -0.0219 O.2       1 <0>        -0.5612
     22 N4          4.0082   -0.2288   -0.0354 N.am      1 <0>        -0.6762
     23 C17         4.3259   -1.5908    0.0605 C.ar      1 <0>         0.1221
     24 C18         3.5018   -2.5397   -0.5280 C.ar      1 <0>        -0.0634
     25 C19         3.8163   -3.8816   -0.4326 C.ar      1 <0>        -0.1414
     26 C20         4.9532   -4.2813    0.2495 C.ar      1 <0>         0.1178
     27 C21         5.7778   -3.3375    0.8380 C.ar      1 <0>        -0.1718
     28 C22         5.4699   -1.9926    0.7406 C.ar      1 <0>         0.1049
     29 F2          6.2774   -1.0710    1.3095 F         1 <0>        -0.1277
     30 F3          5.2581   -5.5942    0.3411 F         1 <0>        -0.1289
     31 H1         -6.0946    0.1766   -0.0082 H         1 <0>         0.1300
     32 H2         -5.6160    2.5908   -0.0143 H         1 <0>         0.1333
     33 H3         -3.2869    3.3859   -0.0172 H         1 <0>         0.1378
     34 H4         -1.9141   -0.6639   -0.0193 H         1 <0>         0.1333
     35 H5         -4.2466   -1.4489   -0.0051 H         1 <0>         0.1346
     36 H6          0.0019   -0.0058   -0.0130 H         1 <0>         0.2094
     37 H7          2.9900    3.5736    1.1974 H         1 <0>         0.1330
     38 H8          4.3965    5.5914    1.1724 H         1 <0>         0.1436
     39 H9          1.5144    7.5861   -1.2663 H         1 <0>         0.1430
     40 H10         0.1014    5.5728   -1.2565 H         1 <0>         0.1406
     41 H11         3.1244    2.1396   -0.0363 H         1 <0>         0.4117
     42 H12         4.7162    0.4305   -0.1063 H         1 <0>         0.4142
     43 H13         2.6152   -2.2293   -1.0609 H         1 <0>         0.1631
     44 H14         3.1748   -4.6198   -0.8907 H         1 <0>         0.1488
     45 H15         6.6642   -3.6513    1.3692 H         1 <0>         0.1545
@<TRIPOS>BOND
     1    1    6 ar
     2    1    2 ar
     3    1   31 1
     4    2    3 ar
     5    2   32 1
     6    3    4 ar
     7    3   33 1
     8    4    5 ar
     9    4    7 1
    10    5    6 ar
    11    5   34 1
    12    6   35 1
    13    7   11 1
    14    7    8 1
    15    8    9 2
    16    8   36 1
    17    9   10 1
    18    9   19 1
    19   10   11 2
    20   10   12 1
    21   12   17 ar
    22   12   13 ar
    23   13   14 ar
    24   13   37 1
    25   14   15 ar
    26   14   38 1
    27   15   16 ar
    28   15   18 1
    29   16   17 ar
    30   16   39 1
    31   17   40 1
    32   19   20 am
    33   19   41 1
    34   20   21 2
    35   20   22 am
    36   22   23 1
    37   22   42 1
    38   23   28 ar
    39   23   24 ar
    40   24   25 ar
    41   24   43 1
    42   25   26 ar
    43   25   44 1
    44   26   27 ar
    45   26   30 1
    46   27   28 ar
    47   27   45 1
    48   28   29 1
@<TRIPOS>MOLECULE
ZINC19797668
   52    54     0     0     0
SMALL
USER_CHARGES
(4R,4aR)-2-amino-4-(4-butoxyphenyl)-4a,5,6,7-tetrahydro-4H-naphthalene-1,3,3-tricarbonitrile
@<TRIPOS>ATOM
      1 C1         -4.3420    3.0828    0.8218 C.3       1 <0>        -0.1547
      2 C2         -3.9238    2.7097    2.2455 C.3       1 <0>        -0.1220
      3 C3         -2.4513    2.2943    2.2521 C.3       1 <0>        -0.1216
      4 C4         -2.0331    1.9212    3.6758 C.3       1 <0>         0.0570
      5 O1         -0.6578    1.5332    3.6820 O.3       1 <0>        -0.3147
      6 C5         -0.1249    1.1687    4.8779 C.ar      1 <0>         0.1394
      7 C6         -0.9081    1.1896    6.0228 C.ar      1 <0>        -0.2075
      8 C7         -0.3656    0.8136    7.2364 C.ar      1 <0>        -0.0586
      9 C8          0.9596    0.4267    7.3123 C.ar      1 <0>        -0.1259
     10 C9          1.7438    0.4104    6.1737 C.ar      1 <0>        -0.0795
     11 C10         1.2046    0.7805    4.9569 C.ar      1 <0>        -0.1462
     12 C11         1.5505    0.0225    8.6384 C.3       1 <0>        -0.0153
     13 H1          0.9875    0.5274    9.4372 H         1 <0>         0.1184
     14 C12         1.4533   -1.4956    8.8011 C.3       1 <0>        -0.0376
     15 H2          1.9693   -1.8373    9.7105 H         1 <0>         0.0901
     16 C13         0.0278   -1.9501    9.0102 C.3       1 <0>        -0.1119
     17 C14        -0.5993   -2.4701    7.7182 C.3       1 <0>        -0.1255
     18 C15         0.2478   -3.6439    7.2079 C.3       1 <0>        -0.0899
     19 C16         1.6333   -3.1229    6.9267 C.2       1 <0>        -0.1343
     20 C17         2.1483   -2.1398    7.6385 C.2       1 <0>        -0.0502
     21 C18         3.4735   -1.5850    7.2556 C.2       1 <0>        -0.1448
     22 C19         3.8570   -0.3800    7.7473 C.2       1 <0>         0.2521
     23 C20         3.0223    0.4335    8.6898 C.3       1 <0>         0.2090
     24 C21         3.1368    1.8556    8.3274 C.1       1 <0>         0.1949
     25 N1          3.2251    2.9531    8.0478 N.1       1 <0>        -0.3510
     26 C22         3.5256    0.2470   10.0604 C.1       1 <0>         0.1997
     27 N2          3.9140    0.1030   11.1182 N.1       1 <0>        -0.3542
     28 N3          5.0695    0.1191    7.3622 N.pl3     1 <0>        -0.8650
     29 C23         4.3367   -2.3154    6.3769 C.1       1 <0>         0.2647
     30 N4          5.0215   -2.8948    5.6799 N.1       1 <0>        -0.4291
     31 H3         -5.4007    3.3815    0.8170 H         1 <0>         0.0582
     32 H4         -4.2027    2.2156    0.1596 H         1 <0>         0.0567
     33 H5         -3.7233    3.9196    0.4653 H         1 <0>         0.0565
     34 H6         -4.0632    3.5769    2.9077 H         1 <0>         0.0651
     35 H7         -4.5425    1.8730    2.6020 H         1 <0>         0.0655
     36 H8         -2.3120    1.4271    1.5898 H         1 <0>         0.0750
     37 H9         -1.8326    3.1310    1.8956 H         1 <0>         0.0744
     38 H10        -2.1724    2.7884    4.3380 H         1 <0>         0.0630
     39 H11        -2.6518    1.0845    4.0323 H         1 <0>         0.0641
     40 H12        -1.9422    1.4958    5.9648 H         1 <0>         0.1292
     41 H13        -0.9761    0.8255    8.1272 H         1 <0>         0.1283
     42 H14         2.7789    0.1085    6.2357 H         1 <0>         0.1398
     43 H15         1.8177    0.7680    4.0678 H         1 <0>         0.1287
     44 H16         0.0067   -2.7604    9.7539 H         1 <0>         0.0728
     45 H17        -0.5772   -1.1053    9.3711 H         1 <0>         0.0729
     46 H18        -1.6271   -2.8067    7.9191 H         1 <0>         0.0666
     47 H19        -0.6170   -1.6647    6.9692 H         1 <0>         0.0743
     48 H20         0.2842   -4.4308    7.9756 H         1 <0>         0.0771
     49 H21        -0.2019   -4.0485    6.2892 H         1 <0>         0.0729
     50 H22         2.2170   -3.5765    6.1122 H         1 <0>         0.1092
     51 H23         5.4093    1.0935    7.7432 H         1 <0>         0.4269
     52 H24         5.7057   -0.4535    6.6712 H         1 <0>         0.4369
@<TRIPOS>BOND
     1    1    2 1
     2    1   31 1
     3    1   32 1
     4    1   33 1
     5    2    3 1
     6    2   34 1
     7    2   35 1
     8    3    4 1
     9    3   36 1
    10    3   37 1
    11    4    5 1
    12    4   38 1
    13    4   39 1
    14    5    6 1
    15    6   11 ar
    16    6    7 ar
    17    7    8 ar
    18    7   40 1
    19    8    9 ar
    20    8   41 1
    21    9   10 ar
    22    9   12 1
    23   10   11 ar
    24   10   42 1
    25   11   43 1
    26   12   13 1
    27   12   23 1
    28   12   14 1
    29   14   15 1
    30   14   20 1
    31   14   16 1
    32   16   17 1
    33   16   44 1
    34   16   45 1
    35   17   18 1
    36   17   46 1
    37   17   47 1
    38   18   19 1
    39   18   48 1
    40   18   49 1
    41   19   20 2
    42   19   50 1
    43   20   21 1
    44   21   22 2
    45   21   29 1
    46   22   23 1
    47   22   28 1
    48   23   24 1
    49   23   26 1
    50   24   25 3
    51   26   27 3
    52   28   51 1
    53   28   52 1
    54   29   30 3
@<TRIPOS>MOLECULE
ZINC37546174
   55    58     0     0     0
SMALL
USER_CHARGES

@<TRIPOS>ATOM
      1 C1          1.6291    1.9253   -1.2107 C.ar      1 <0>        -0.1326
      2 C2          1.3086    0.8111   -0.4571 C.ar      1 <0>        -0.1002
      3 C3          2.2999   -0.0654   -0.0616 C.ar      1 <0>        -0.1203
      4 C4          3.6197    0.1730   -0.4218 C.ar      1 <0>         0.1410
      5 C5          3.9383    1.2926   -1.1791 C.ar      1 <0>        -0.1452
      6 C6          2.9424    2.1655   -1.5711 C.ar      1 <0>        -0.1002
      7 N1          4.6265   -0.7129   -0.0223 N.am      1 <0>        -0.6745
      8 C7          4.3613   -2.0298    0.0860 C.2       1 <0>         0.5195
      9 O1          3.2782   -2.4600   -0.2500 O.2       1 <0>        -0.5054
     10 C8          5.4106   -2.9679    0.6246 C.3       1 <0>        -0.1218
     11 H1          6.2946   -2.9291   -0.0119 H         1 <0>         0.1082
     12 C9          4.8580   -4.3949    0.6449 C.3       1 <0>        -0.1003
     13 C10         5.9340   -5.3532    1.1609 C.3       1 <0>        -0.1286
     14 C11         6.3163   -4.9624    2.5919 C.3       1 <0>         0.2034
     15 H2          5.4613   -5.1097    3.2517 H         1 <0>         0.0885
     16 N2          6.7114   -3.5473    2.6062 N.am      1 <0>        -0.6199
     17 C12         5.7876   -2.5496    2.0493 C.3       1 <0>         0.1220
     18 C13         7.8991   -3.1711    3.1204 C.2       1 <0>         0.6996
     19 O2          8.6173   -3.9929    3.6562 O.2       1 <0>        -0.5328
     20 N3          8.2905   -1.8839    3.0408 N.am      1 <0>        -0.6880
     21 C14         9.5635   -1.5108    3.4865 C.ar      1 <0>         0.1628
     22 C15        10.6334   -2.3851    3.3473 C.ar      1 <0>        -0.1183
     23 C16        11.8886   -2.0138    3.7878 C.ar      1 <0>        -0.0996
     24 C17        12.0806   -0.7729    4.3669 C.ar      1 <0>        -0.1359
     25 C18        11.0172    0.0999    4.5074 C.ar      1 <0>        -0.0994
     26 C19         9.7607   -0.2633    4.0638 C.ar      1 <0>        -0.1491
     27 C20         7.4674   -5.8160    3.0583 C.ar      1 <0>        -0.0765
     28 C21         8.6726   -5.7796    2.3821 C.ar      1 <0>        -0.0176
     29 C22         9.7290   -6.5616    2.8091 C.ar      1 <0>        -0.1613
     30 C23         9.5799   -7.3818    3.9146 C.ar      1 <0>         0.1026
     31 C24         8.3724   -7.4174    4.5911 C.ar      1 <0>        -0.1588
     32 C25         7.3190   -6.6305    4.1654 C.ar      1 <0>        -0.0803
     33 F1         10.6118   -8.1470    4.3327 F         1 <0>        -0.1445
     34 H3          0.8516    2.6070   -1.5223 H         1 <0>         0.1245
     35 H4          0.2820    0.6263   -0.1773 H         1 <0>         0.1267
     36 H5          2.0490   -0.9351    0.5276 H         1 <0>         0.1336
     37 H6          4.9638    1.4809   -1.4606 H         1 <0>         0.1251
     38 H7          3.1895    3.0364   -2.1601 H         1 <0>         0.1271
     39 H8          5.5153   -0.3791    0.1767 H         1 <0>         0.4092
     40 H9          3.9884   -4.4383    1.3006 H         1 <0>         0.0783
     41 H10         4.5665   -4.6858   -0.3643 H         1 <0>         0.0826
     42 H11         5.5476   -6.3723    1.1530 H         1 <0>         0.0905
     43 H12         6.8134   -5.2920    0.5198 H         1 <0>         0.0739
     44 H13         6.2727   -1.5738    2.0273 H         1 <0>         0.0802
     45 H14         4.8897   -2.4998    2.6652 H         1 <0>         0.0845
     46 H15         7.6899   -1.2161    2.6746 H         1 <0>         0.4008
     47 H16        10.4840   -3.3546    2.8954 H         1 <0>         0.1347
     48 H17        12.7210   -2.6934    3.6801 H         1 <0>         0.1245
     49 H18        13.0632   -0.4848    4.7106 H         1 <0>         0.1228
     50 H19        11.1703    1.0682    4.9605 H         1 <0>         0.1257
     51 H20         8.9315    0.4206    4.1695 H         1 <0>         0.1226
     52 H21         8.7886   -5.1401    1.5196 H         1 <0>         0.1140
     53 H22        10.6704   -6.5333    2.2805 H         1 <0>         0.1271
     54 H23         8.2549   -8.0570    5.4534 H         1 <0>         0.1297
     55 H24         6.3784   -6.6548    4.6955 H         1 <0>         0.1254
@<TRIPOS>BOND
     1    1    6 ar
     2    1    2 ar
     3    1   34 1
     4    2    3 ar
     5    2   35 1
     6    3    4 ar
     7    3   36 1
     8    4    5 ar
     9    4    7 1
    10    5    6 ar
    11    5   37 1
    12    6   38 1
    13    7    8 am
    14    7   39 1
    15    8    9 2
    16    8   10 1
    17   10   11 1
    18   10   17 1
    19   10   12 1
    20   12   13 1
    21   12   40 1
    22   12   41 1
    23   13   14 1
    24   13   42 1
    25   13   43 1
    26   14   15 1
    27   14   16 1
    28   14   27 1
    29   16   17 1
    30   16   18 am
    31   17   44 1
    32   17   45 1
    33   18   19 2
    34   18   20 am
    35   20   21 1
    36   20   46 1
    37   21   26 ar
    38   21   22 ar
    39   22   23 ar
    40   22   47 1
    41   23   24 ar
    42   23   48 1
    43   24   25 ar
    44   24   49 1
    45   25   26 ar
    46   25   50 1
    47   26   51 1
    48   27   32 ar
    49   27   28 ar
    50   28   29 ar
    51   28   52 1
    52   29   30 ar
    53   29   53 1
    54   30   31 ar
    55   30   33 1
    56   31   32 ar
    57   31   54 1
    58   32   55 1
@<TRIPOS>MOLECULE
ZINC39736932
   40    42     0     0     0
SMALL
USER_CHARGES

@<TRIPOS>ATOM
      1 C1         -0.7280    1.5461    0.1519 C.3       1 <0>        -0.1239
      2 C2         -0.3712    0.0859    0.2600 C.ar      1 <0>        -0.0481
      3 C3          0.8932   -0.3428   -0.1032 C.ar      1 <0>        -0.1268
      4 C4          1.2264   -1.6780   -0.0066 C.ar      1 <0>        -0.0449
      5 C5          0.2845   -2.5972    0.4591 C.ar      1 <0>        -0.1535
      6 C6         -0.9892   -2.1578    0.8242 C.ar      1 <0>        -0.0793
      7 C7         -1.3077   -0.8191    0.7273 C.ar      1 <0>        -0.1272
      8 C8          0.6343   -4.0293    0.5647 C.2       1 <0>         0.5452
      9 O1          1.7442   -4.4091    0.2456 O.2       1 <0>        -0.4819
     10 N1         -0.2773   -4.9142    1.0147 N.am      1 <0>        -0.6791
     11 C9          0.0179   -6.2684    1.0251 C.2       1 <0>         0.1003
     12 C10         0.0251   -6.9417    2.1792 C.2       1 <0>        -0.0588
     13 C11        -0.1227   -6.2180    3.4565 C.ar      1 <0>        -0.0588
     14 C12        -0.6325   -6.8738    4.5793 C.ar      1 <0>        -0.0884
     15 C13        -0.7677   -6.1917    5.7704 C.ar      1 <0>        -0.0923
     16 C14        -0.3997   -4.8596    5.8544 C.ar      1 <0>        -0.0781
     17 C15         0.1063   -4.2036    4.7451 C.ar      1 <0>        -0.0910
     18 C16         0.2520   -4.8758    3.5495 C.ar      1 <0>        -0.0995
     19 Br1        -0.5897   -3.9319    7.4912 Br        1 <0>        -0.0414
     20 C17         0.3306   -6.9814   -0.2652 C.3       1 <0>         0.1707
     21 H1          0.5686   -8.0282   -0.0761 H         1 <0>         0.1774
     22 N2         -0.7981   -6.8673   -1.2088 N.pl3     1 <0>        -0.6661
     23 C18        -0.2823   -6.2071   -2.2690 C.2       1 <0>         0.3810
     24 N3          1.0087   -5.9219   -2.0600 N.2       1 <0>        -0.1601
     25 N4          1.4390   -6.3168   -0.9693 N.2       1 <0>        -0.0058
     26 S1         -1.1570   -5.7942   -3.6816 S.2       1 <0>        -0.3902
     27 H2         -0.4818    2.0504    1.0863 H         1 <0>         0.0781
     28 H3         -0.1647    1.9983   -0.6644 H         1 <0>         0.0730
     29 H4         -1.7955    1.6457   -0.0445 H         1 <0>         0.0717
     30 H5          1.6209    0.3694   -0.4633 H         1 <0>         0.1342
     31 H6          2.2134   -2.0115   -0.2911 H         1 <0>         0.1399
     32 H7         -1.7225   -2.8639    1.1850 H         1 <0>         0.1211
     33 H8         -2.2914   -0.4772    1.0133 H         1 <0>         0.1313
     34 H9         -1.1399   -4.6033    1.3312 H         1 <0>         0.4154
     35 H10         0.1392   -8.0157    2.1772 H         1 <0>         0.1515
     36 H11        -0.9205   -7.9127    4.5149 H         1 <0>         0.1387
     37 H12        -1.1617   -6.6976    6.6394 H         1 <0>         0.1386
     38 H13         0.3915   -3.1644    4.8172 H         1 <0>         0.1360
     39 H14         0.6506   -4.3641    2.6860 H         1 <0>         0.1382
     40 H15        -1.7047   -7.1928   -1.0941 H         1 <0>         0.4531
@<TRIPOS>BOND
     1    1    2 1
     2    1   27 1
     3    1   28 1
     4    1   29 1
     5    2    7 ar
     6    2    3 ar
     7    3    4 ar
     8    3   30 1
     9    4    5 ar
    10    4   31 1
    11    5    6 ar
    12    5    8 1
    13    6    7 ar
    14    6   32 1
    15    7   33 1
    16    8    9 2
    17    8   10 am
    18   10   11 1
    19   10   34 1
    20   11   12 2
    21   11   20 1
    22   12   13 1
    23   12   35 1
    24   13   18 ar
    25   13   14 ar
    26   14   15 ar
    27   14   36 1
    28   15   16 ar
    29   15   37 1
    30   16   17 ar
    31   16   19 1
    32   17   18 ar
    33   17   38 1
    34   18   39 1
    35   20   21 1
    36   20   25 1
    37   20   22 1
    38   22   23 1
    39   22   40 1
    40   23   24 1
    41   23   26 2
    42   24   25 2
@<TRIPOS>MOLECULE
ZINC09318287
   40    42     0     0     0
SMALL
USER_CHARGES

@<TRIPOS>ATOM
      1 C1         -0.0469    1.5030    0.0129 C.3       1 <0>        -0.1217
      2 C2         -0.0223   -0.0038    0.0042 C.ar      1 <0>        -0.0650
      3 C3         -0.0192   -0.6857   -1.1997 C.ar      1 <0>        -0.1169
      4 C4          0.0028   -2.0650   -1.2146 C.ar      1 <0>        -0.0800
      5 C5          0.0225   -2.7725   -0.0119 C.ar      1 <0>        -0.0594
      6 C6          0.0198   -2.0788    1.1989 C.ar      1 <0>        -0.0970
      7 C7          0.0029   -0.6992    1.2000 C.ar      1 <0>        -0.1135
      8 C8          0.0457   -4.2515   -0.0205 C.2       1 <0>         0.1509
      9 C9          0.0542   -4.9527   -1.1757 C.2       1 <0>        -0.2405
     10 S1          0.0826   -6.6357   -0.5884 S.3       1 <0>         0.2372
     11 C10         0.0817   -6.3343    1.0652 C.2       1 <0>         0.3707
     12 N1          0.0982   -7.2141    2.0626 N.2       1 <0>        -0.5634
     13 C11         0.1943   -6.7902    3.3255 C.2       1 <0>         0.5032
     14 S2         -1.0642   -5.8547    4.0125 S.2       1 <0>        -0.5117
     15 N2          1.2820   -7.0990    4.0590 N.am      1 <0>        -0.6189
     16 C12         1.3790   -6.6712    5.3334 C.2       1 <0>         0.5187
     17 O1          0.4839   -6.0058    5.8220 O.2       1 <0>        -0.4140
     18 C13         2.5203   -6.9951    6.1030 C.2       1 <0>        -0.2292
     19 C14         2.6180   -6.5644    7.3862 C.2       1 <0>         0.0393
     20 C15         3.7605   -6.8887    8.1566 C.2       1 <0>        -0.0268
     21 C16         3.9874   -6.5236    9.4678 C.2       1 <0>        -0.1461
     22 C17         5.2348   -7.0596    9.8211 C.2       1 <0>        -0.2204
     23 C18         5.7096   -7.7152    8.7385 C.2       1 <0>        -0.0081
     24 O2          4.8194   -7.6150    7.7417 O.3       1 <0>        -0.1656
     25 N3          0.0654   -4.9746    1.1405 N.pl3     1 <0>        -0.6356
     26 H1          0.0645   -4.5274    2.0012 H         1 <0>         0.4211
     27 H2          0.9746    1.8831    0.0032 H         1 <0>         0.0761
     28 H3         -0.5769    1.8628   -0.8690 H         1 <0>         0.0716
     29 H4         -0.5562    1.8528    0.9109 H         1 <0>         0.0706
     30 H5         -0.0345   -0.1369   -2.1298 H         1 <0>         0.1332
     31 H6          0.0044   -2.5962   -2.1550 H         1 <0>         0.1348
     32 H7          0.0347   -2.6205    2.1331 H         1 <0>         0.1191
     33 H8          0.0052   -0.1610    2.1364 H         1 <0>         0.1306
     34 H9          0.0454   -4.5878   -2.1921 H         1 <0>         0.2145
     35 H10         1.9950   -7.6290    3.6697 H         1 <0>         0.4159
     36 H11         3.3142   -7.5853    5.6696 H         1 <0>         0.1343
     37 H12         1.8241   -5.9743    7.8196 H         1 <0>         0.1645
     38 H13         3.3334   -5.9394   10.0981 H         1 <0>         0.1601
     39 H14         5.7246   -6.9657   10.7791 H         1 <0>         0.1572
     40 H15         6.6527   -8.2388    8.6865 H         1 <0>         0.2100
@<TRIPOS>BOND
     1    1    2 1
     2    1   27 1
     3    1   28 1
     4    1   29 1
     5    2    7 ar
     6    2    3 ar
     7    3    4 ar
     8    3   30 1
     9    4    5 ar
    10    4   31 1
    11    5    6 ar
    12    5    8 1
    13    6    7 ar
    14    6   32 1
    15    7   33 1
    16    8   25 1
    17    8    9 2
    18    9   10 1
    19    9   34 1
    20   10   11 1
    21   11   12 2
    22   11   25 1
    23   12   13 1
    24   13   14 2
    25   13   15 1
    26   15   16 am
    27   15   35 1
    28   16   17 2
    29   16   18 1
    30   18   19 2
    31   18   36 1
    32   19   20 1
    33   19   37 1
    34   20   24 1
    35   20   21 2
    36   21   22 1
    37   21   38 1
    38   22   23 2
    39   22   39 1
    40   23   24 1
    41   23   40 1
    42   25   26 1
@<TRIPOS>MOLECULE
ZINC01347004
   57    59     0     0     0
SMALL
USER_CHARGES
N-(p-tolyl)-N'-(4-tert-butylphenyl)-pyrrolidine-1,2-dicarboxamide
@<TRIPOS>ATOM
      1 C1          1.1598    3.5873    0.0927 C.3       1 <0>        -0.1133
      2 C2          1.1809    2.0807    0.0660 C.ar      1 <0>        -0.1024
      3 C3          0.1508    1.3869   -0.5420 C.ar      1 <0>        -0.1016
      4 C4          0.1673    0.0061   -0.5682 C.ar      1 <0>        -0.1419
      5 C5          1.2198   -0.6855    0.0169 C.ar      1 <0>         0.1567
      6 C6          2.2528    0.0142    0.6267 C.ar      1 <0>        -0.1147
      7 C7          2.2304    1.3949    0.6495 C.ar      1 <0>        -0.1024
      8 N1          1.2393   -2.0846   -0.0076 N.am      1 <0>        -0.6815
      9 C8          2.4107   -2.7403   -0.1268 C.2       1 <0>         0.7301
     10 O1          3.4568   -2.1206   -0.1285 O.2       1 <0>        -0.5616
     11 N2          2.4226   -4.0829   -0.2441 N.am      1 <0>        -0.6154
     12 C9          1.2339   -4.9548   -0.2573 C.3       1 <0>         0.0949
     13 C10         1.7516   -6.3381    0.2096 C.3       1 <0>        -0.1276
     14 C11         3.1518   -6.3880   -0.4570 C.3       1 <0>        -0.1230
     15 C12         3.6229   -4.9199   -0.3866 C.3       1 <0>         0.1418
     16 H1          4.2750   -4.7828    0.4760 H         1 <0>         0.1027
     17 C13         4.3565   -4.5531   -1.6508 C.2       1 <0>         0.5097
     18 O2          3.7845   -3.9414   -2.5281 O.2       1 <0>        -0.5017
     19 N3          5.6483   -4.9047   -1.8065 N.am      1 <0>        -0.6718
     20 C14         6.3573   -4.4812   -2.9360 C.ar      1 <0>         0.1408
     21 C15         5.7147   -4.3778   -4.1627 C.ar      1 <0>        -0.1167
     22 C16         6.4158   -3.9531   -5.2743 C.ar      1 <0>        -0.1033
     23 C17         7.7594   -3.6432   -5.1693 C.ar      1 <0>        -0.0831
     24 C18         8.4037   -3.7510   -3.9505 C.ar      1 <0>        -0.0970
     25 C19         7.7066   -4.1687   -2.8338 C.ar      1 <0>        -0.1407
     26 C20         8.5229   -3.1866   -6.3857 C.3       1 <0>        -0.0288
     27 C21         9.6738   -4.1569   -6.6594 C.3       1 <0>        -0.1382
     28 C22         7.5850   -3.1540   -7.5941 C.3       1 <0>        -0.1456
     29 C23         9.0852   -1.7853   -6.1385 C.3       1 <0>        -0.1395
     30 H2          0.6440    3.9275    0.9907 H         1 <0>         0.0695
     31 H3          2.1822    3.9650    0.0959 H         1 <0>         0.0656
     32 H4          0.6378    3.9590   -0.7890 H         1 <0>         0.0655
     33 H5         -0.6652    1.9254   -1.0008 H         1 <0>         0.1258
     34 H6         -0.6373   -0.5352   -1.0436 H         1 <0>         0.1240
     35 H7          3.0726   -0.5208    1.0829 H         1 <0>         0.1391
     36 H8          3.0333    1.9397    1.1239 H         1 <0>         0.1245
     37 H9          0.4096   -2.5825    0.0613 H         1 <0>         0.4053
     38 H10         0.4799   -4.5787    0.4342 H         1 <0>         0.0792
     39 H11         0.8237   -5.0217   -1.2650 H         1 <0>         0.0751
     40 H12         1.8343   -6.3781    1.2957 H         1 <0>         0.0845
     41 H13         1.1133   -7.1398   -0.1619 H         1 <0>         0.0937
     42 H14         3.8231   -7.0382    0.1040 H         1 <0>         0.0983
     43 H15         3.0738   -6.7148   -1.4939 H         1 <0>         0.0846
     44 H16         6.0864   -5.4513   -1.1356 H         1 <0>         0.4095
     45 H17         4.6666   -4.6247   -4.2464 H         1 <0>         0.1346
     46 H18         5.9153   -3.8673   -6.2274 H         1 <0>         0.1284
     47 H19         9.4530   -3.5078   -3.8717 H         1 <0>         0.1245
     48 H20         8.2102   -4.2520   -1.8820 H         1 <0>         0.1242
     49 H21         9.2732   -5.1552   -6.8354 H         1 <0>         0.0561
     50 H22        10.2261   -3.8266   -7.5391 H         1 <0>         0.0585
     51 H23        10.3420   -4.1801   -5.7985 H         1 <0>         0.0566
     52 H24         6.7651   -2.4627   -7.3991 H         1 <0>         0.0588
     53 H25         8.1373   -2.8237   -8.4738 H         1 <0>         0.0587
     54 H26         7.1845   -4.1523   -7.7701 H         1 <0>         0.0586
     55 H27         9.7533   -1.8085   -5.2776 H         1 <0>         0.0567
     56 H28         9.6374   -1.4550   -7.0183 H         1 <0>         0.0586
     57 H29         8.2653   -1.0940   -5.9436 H         1 <0>         0.0565
@<TRIPOS>BOND
     1    1    2 1
     2    1   30 1
     3    1   31 1
     4    1   32 1
     5    2    7 ar
     6    2    3 ar
     7    3    4 ar
     8    3   33 1
     9    4    5 ar
    10    4   34 1
    11    5    6 ar
    12    5    8 1
    13    6    7 ar
    14    6   35 1
    15    7   36 1
    16    8    9 am
    17    8   37 1
    18    9   10 2
    19    9   11 am
    20   11   15 1
    21   11   12 1
    22   12   13 1
    23   12   38 1
    24   12   39 1
    25   13   14 1
    26   13   40 1
    27   13   41 1
    28   14   15 1
    29   14   42 1
    30   14   43 1
    31   15   16 1
    32   15   17 1
    33   17   18 2
    34   17   19 am
    35   19   20 1
    36   19   44 1
    37   20   25 ar
    38   20   21 ar
    39   21   22 ar
    40   21   45 1
    41   22   23 ar
    42   22   46 1
    43   23   24 ar
    44   23   26 1
    45   24   25 ar
    46   24   47 1
    47   25   48 1
    48   26   27 1
    49   26   28 1
    50   26   29 1
    51   27   49 1
    52   27   50 1
    53   27   51 1
    54   28   52 1
    55   28   53 1
    56   28   54 1
    57   29   55 1
    58   29   56 1
    59   29   57 1
@<TRIPOS>MOLECULE
ZINC22443220
   49    52     0     0     0
SMALL
USER_CHARGES
(7S)-2-anilino-7-methyl-4-(o-tolylamino)-7,8-dihydro-6H-quinazolin-5-one
@<TRIPOS>ATOM
      1 C1          6.0185   -0.4769    0.6581 C.3       1 <0>        -0.1163
      2 C2          5.7467    0.8362   -0.0296 C.ar      1 <0>        -0.1160
      3 C3          6.7480    1.4614   -0.7468 C.ar      1 <0>        -0.1018
      4 C4          6.4994    2.6662   -1.3780 C.ar      1 <0>        -0.1378
      5 C5          5.2483    3.2497   -1.2931 C.ar      1 <0>        -0.1092
      6 C6          4.2413    2.6273   -0.5822 C.ar      1 <0>        -0.1407
      7 C7          4.4891    1.4192    0.0573 C.ar      1 <0>         0.1480
      8 N1          3.4733    0.7888    0.7819 N.pl3     1 <0>        -0.6348
      9 C8          2.1522    1.0321    0.4715 C.ar      1 <0>         0.5192
     10 C9          1.1211    0.2468    1.0320 C.ar      1 <0>        -0.3922
     11 C10        -0.2052    0.5306    0.6940 C.ar      1 <0>         0.3054
     12 N2         -0.4448    1.5234   -0.1459 N.ar      1 <0>        -0.5958
     13 C11         0.5472    2.2420   -0.6583 C.ar      1 <0>         0.6234
     14 N3          1.8182    2.0113   -0.3630 N.ar      1 <0>        -0.6186
     15 N4          0.2434    3.2664   -1.5310 N.pl3     1 <0>        -0.6423
     16 C12        -1.0887    3.6375   -1.7369 C.ar      1 <0>         0.1566
     17 C13        -2.0797    2.6663   -1.8020 C.ar      1 <0>        -0.1078
     18 C14        -3.3951    3.0365   -2.0015 C.ar      1 <0>        -0.1053
     19 C15        -3.7250    4.3717   -2.1456 C.ar      1 <0>        -0.1334
     20 C16        -2.7402    5.3408   -2.0861 C.ar      1 <0>        -0.1038
     21 C17        -1.4234    4.9777   -1.8824 C.ar      1 <0>        -0.1429
     22 C18        -1.3493   -0.2581    1.2658 C.3       1 <0>        -0.0781
     23 C19        -0.8871   -1.6339    1.7400 C.3       1 <0>        -0.0856
     24 H1         -0.5647   -2.2279    0.8721 H         1 <0>         0.0812
     25 C20         0.2836   -1.4710    2.7183 C.3       1 <0>        -0.1592
     26 C21         1.4336   -0.8492    1.9519 C.2       1 <0>         0.4274
     27 O1          2.5718   -1.2453    2.0948 O.2       1 <0>        -0.4794
     28 C22        -2.0441   -2.3462    2.4434 C.3       1 <0>        -0.1490
     29 H2          7.0612   -0.7768    0.4768 H         1 <0>         0.0709
     30 H3          5.3411   -1.2466    0.2597 H         1 <0>         0.0699
     31 H4          5.8516   -0.3658    1.7397 H         1 <0>         0.0660
     32 H5          7.7261    1.0086   -0.8147 H         1 <0>         0.1240
     33 H6          7.2839    3.1528   -1.9384 H         1 <0>         0.1203
     34 H7          5.0575    4.1910   -1.7871 H         1 <0>         0.1218
     35 H8          3.2632    3.0812   -0.5202 H         1 <0>         0.1693
     36 H9          3.7280    0.0987    1.5997 H         1 <0>         0.4563
     37 H10         1.0493    3.7913   -2.0649 H         1 <0>         0.4506
     38 H11        -1.8221    1.6231   -1.6936 H         1 <0>         0.1408
     39 H12        -4.1665    2.2821   -2.0492 H         1 <0>         0.1241
     40 H13        -4.7540    4.6583   -2.3053 H         1 <0>         0.1220
     41 H14        -3.0012    6.3826   -2.1994 H         1 <0>         0.1250
     42 H15        -0.6547    5.7349   -1.8368 H         1 <0>         0.1237
     43 H16        -1.7762    0.2838    2.1226 H         1 <0>         0.1046
     44 H17        -2.1227   -0.3935    0.4953 H         1 <0>         0.1024
     45 H18        -0.0216   -0.8189    3.5499 H         1 <0>         0.1066
     46 H19         0.5722   -2.4567    3.1122 H         1 <0>         0.1003
     47 H20        -1.7111   -3.3374    2.7850 H         1 <0>         0.0639
     48 H21        -2.8834   -2.4630    1.7420 H         1 <0>         0.0641
     49 H22        -2.3696   -1.7503    3.3088 H         1 <0>         0.0621
@<TRIPOS>BOND
     1    1    2 1
     2    1   29 1
     3    1   30 1
     4    1   31 1
     5    2    7 ar
     6    2    3 ar
     7    3    4 ar
     8    3   32 1
     9    4    5 ar
    10    4   33 1
    11    5    6 ar
    12    5   34 1
    13    6    7 ar
    14    6   35 1
    15    7    8 1
    16    8    9 1
    17    8   36 1
    18    9   14 ar
    19    9   10 ar
    20   10   26 1
    21   10   11 ar
    22   11   12 ar
    23   11   22 1
    24   12   13 ar
    25   13   14 ar
    26   13   15 1
    27   15   16 1
    28   15   37 1
    29   16   21 ar
    30   16   17 ar
    31   17   18 ar
    32   17   38 1
    33   18   19 ar
    34   18   39 1
    35   19   20 ar
    36   19   40 1
    37   20   21 ar
    38   20   41 1
    39   21   42 1
    40   22   23 1
    41   22   43 1
    42   22   44 1
    43   23   24 1
    44   23   25 1
    45   23   28 1
    46   25   26 1
    47   25   45 1
    48   25   46 1
    49   26   27 2
    50   28   47 1
    51   28   48 1
    52   28   49 1
@<TRIPOS>MOLECULE
ZINC00664599
   50    53     0     0     0
SMALL
USER_CHARGES

@<TRIPOS>ATOM
      1 C1         -0.0187    1.5258    0.0104 C.3       1 <0>        -0.1379
      2 C2          0.0021   -0.0041    0.0020 C.3       1 <0>        -0.0303
      3 C3          0.7421   -0.5109    1.2415 C.3       1 <0>        -0.1391
      4 C4         -1.4333   -0.5336    0.0129 C.3       1 <0>        -0.1446
      5 C5          0.7074   -0.4901   -1.2379 C.ar      1 <0>        -0.0680
      6 C6          0.0361   -1.2843   -2.1485 C.ar      1 <0>        -0.1187
      7 C7          0.6831   -1.7301   -3.2859 C.ar      1 <0>        -0.1057
      8 C8          2.0014   -1.3813   -3.5127 C.ar      1 <0>        -0.0758
      9 C9          2.6724   -0.5863   -2.6025 C.ar      1 <0>        -0.0959
     10 C10         2.0241   -0.1370   -1.4673 C.ar      1 <0>        -0.1145
     11 C11         2.7070   -1.8681   -4.7521 C.3       1 <0>         0.1212
     12 H1          2.0268   -2.4773   -5.3474 H         1 <0>         0.0938
     13 C12         3.1786   -0.6898   -5.5651 C.2       1 <0>        -0.2455
     14 C13         2.4625    0.1882   -6.3079 C.2       1 <0>         0.1774
     15 N1          3.3483    1.0758   -6.8504 N.pl3     1 <0>        -0.4572
     16 H2          3.1269    1.8208   -7.4308 H         1 <0>         0.4518
     17 N2          4.6355    0.7185   -6.4197 N.2       1 <0>        -0.2477
     18 C14         4.5380   -0.3319   -5.6553 C.2       1 <0>         0.2709
     19 O1          5.5118   -1.0332   -5.0137 O.3       1 <0>        -0.2106
     20 C15         5.1797   -2.2378   -4.5088 C.2       1 <0>         0.4411
     21 C16         3.9137   -2.6846   -4.3633 C.2       1 <0>        -0.2652
     22 C17         3.7071   -3.9913   -3.8152 C.1       1 <0>         0.2714
     23 N3          3.5433   -5.0280   -3.3804 N.1       1 <0>        -0.4407
     24 N4          6.1991   -3.0687   -4.1155 N.pl3     1 <0>        -0.8307
     25 C18         0.9949    0.1860   -6.4968 C.ar      1 <0>        -0.0518
     26 C19         0.3251   -1.0088   -6.7617 C.ar      1 <0>        -0.0556
     27 C20        -1.0431   -1.0056   -6.9366 C.ar      1 <0>        -0.1494
     28 C21        -1.7523    0.1817   -6.8495 C.ar      1 <0>         0.1175
     29 C22        -1.0917    1.3712   -6.5870 C.ar      1 <0>        -0.1498
     30 C23         0.2756    1.3778   -6.4048 C.ar      1 <0>        -0.0665
     31 F1         -3.0923    0.1796   -7.0215 F         1 <0>        -0.1338
     32 H3          1.0039    1.9031    0.0027 H         1 <0>         0.0562
     33 H4         -0.5459    1.8868   -0.8726 H         1 <0>         0.0557
     34 H5         -0.5289    1.8773    0.9072 H         1 <0>         0.0580
     35 H6          0.2319   -0.1594    2.1383 H         1 <0>         0.0582
     36 H7          0.7568   -1.6008    1.2356 H         1 <0>         0.0562
     37 H8          1.7647   -0.1336    1.2338 H         1 <0>         0.0564
     38 H9         -1.9605   -0.1726   -0.8702 H         1 <0>         0.0584
     39 H10        -1.4185   -1.6235    0.0069 H         1 <0>         0.0585
     40 H11        -1.9435   -0.1821    0.9097 H         1 <0>         0.0579
     41 H12        -0.9938   -1.5568   -1.9713 H         1 <0>         0.1245
     42 H13         0.1588   -2.3512   -3.9970 H         1 <0>         0.1182
     43 H14         3.7024   -0.3141   -2.7796 H         1 <0>         0.1125
     44 H15         2.5473    0.4872   -0.7580 H         1 <0>         0.1178
     45 H16         7.1211   -2.7813   -4.2055 H         1 <0>         0.4122
     46 H17         5.9973   -3.9432   -3.7475 H         1 <0>         0.4270
     47 H18         0.8770   -1.9347   -6.8302 H         1 <0>         0.1411
     48 H19        -1.5625   -1.9299   -7.1421 H         1 <0>         0.1440
     49 H20        -1.6489    2.2939   -6.5204 H         1 <0>         0.1421
     50 H21         0.7889    2.3047   -6.1959 H         1 <0>         0.1351
@<TRIPOS>BOND
     1    1    2 1
     2    1   32 1
     3    1   33 1
     4    1   34 1
     5    2    3 1
     6    2    4 1
     7    2    5 1
     8    3   35 1
     9    3   36 1
    10    3   37 1
    11    4   38 1
    12    4   39 1
    13    4   40 1
    14    5   10 ar
    15    5    6 ar
    16    6    7 ar
    17    6   41 1
    18    7    8 ar
    19    7   42 1
    20    8    9 ar
    21    8   11 1
    22    9   10 ar
    23    9   43 1
    24   10   44 1
    25   11   12 1
    26   11   21 1
    27   11   13 1
    28   13   18 1
    29   13   14 2
    30   14   15 1
    31   14   25 1
    32   15   16 1
    33   15   17 1
    34   17   18 2
    35   18   19 1
    36   19   20 1
    37   20   21 2
    38   20   24 1
    39   21   22 1
    40   22   23 3
    41   24   45 1
    42   24   46 1
    43   25   30 ar
    44   25   26 ar
    45   26   27 ar
    46   26   47 1
    47   27   28 ar
    48   27   48 1
    49   28   29 ar
    50   28   31 1
    51   29   30 ar
    52   29   49 1
    53   30   50 1
@<TRIPOS>MOLECULE
ZINC20745931
   41    44     0     0     0
SMALL
USER_CHARGES

@<TRIPOS>ATOM
      1 C1         -0.0166    1.3715    0.0096 C.ar      1 <0>        -0.1410
      2 C2          1.1788    2.0677    0.0019 C.ar      1 <0>        -0.0844
      3 C3          2.3650    1.3763   -0.0168 C.ar      1 <0>        -0.1632
      4 C4          2.3956   -0.0291   -0.0238 C.ar      1 <0>         0.1760
      5 C5          1.2015   -0.7172   -0.0115 C.ar      1 <0>        -0.1190
      6 C6          0.0021   -0.0041    0.0020 C.ar      1 <0>        -0.0868
      7 C7          1.0653   -2.2052   -0.0027 C.3       1 <0>        -0.0728
      8 C8          2.1041   -2.9496    0.7765 C.3       1 <0>        -0.1060
      9 C9          3.4265   -3.0659    0.0574 C.3       1 <0>        -0.0909
     10 H1          3.2452   -3.3847   -0.9690 H         1 <0>         0.1358
     11 C10         4.1642   -1.7755    0.0401 C.2       1 <0>         0.5271
     12 O1          5.3719   -1.8428    0.1287 O.2       1 <0>        -0.5007
     13 N1          3.6557   -0.5802   -0.0604 N.am      1 <0>        -0.6408
     14 S1          4.4443   -4.3143    0.8918 S.3       1 <0>         0.0434
     15 C11         5.8750   -4.4487   -0.1279 C.2       1 <0>         0.2713
     16 N2          6.9309   -5.2848    0.1063 N.pl3     1 <0>        -0.5833
     17 H2          7.0239   -5.8995    0.8509 H         1 <0>         0.4267
     18 C12         7.8432   -5.0911   -0.9180 C.ar      1 <0>         0.0891
     19 C13         9.0804   -5.6404   -1.2185 C.ar      1 <0>        -0.1321
     20 C14         9.7625   -5.2231   -2.3480 C.ar      1 <0>         0.1228
     21 C15         9.2128   -4.2555   -3.1828 C.ar      1 <0>        -0.1906
     22 C16         7.9854   -3.7022   -2.8957 C.ar      1 <0>        -0.0232
     23 C17         7.2857   -4.1142   -1.7588 C.ar      1 <0>         0.0387
     24 N3          6.0831   -3.7666   -1.2265 N.2       1 <0>        -0.4576
     25 O2         10.9761   -5.7611   -2.6430 O.3       1 <0>        -0.3185
     26 C18        11.6267   -5.2862   -3.8233 C.3       1 <0>         0.4133
     27 F1         10.8201   -5.5450   -4.9367 F         1 <0>        -0.1971
     28 F2         11.8429   -3.9083   -3.7143 F         1 <0>        -0.1969
     29 H3         -0.9564    1.9033    0.0259 H         1 <0>         0.1280
     30 H4          1.1790    3.1477    0.0102 H         1 <0>         0.1300
     31 H5          3.2954    1.9246   -0.0267 H         1 <0>         0.1268
     32 H6         -0.9330   -0.5444    0.0067 H         1 <0>         0.1275
     33 H7          0.0870   -2.4554    0.4079 H         1 <0>         0.0920
     34 H8          1.0962   -2.5564   -1.0341 H         1 <0>         0.0795
     35 H9          2.2658   -2.4347    1.7236 H         1 <0>         0.0802
     36 H10         1.7315   -3.9521    0.9865 H         1 <0>         0.0971
     37 H11         4.3405    0.0932   -0.1960 H         1 <0>         0.4017
     38 H12         9.5107   -6.3916   -0.5727 H         1 <0>         0.1362
     39 H13         9.7528   -3.9359   -4.0618 H         1 <0>         0.1410
     40 H14         7.5640   -2.9517   -3.5481 H         1 <0>         0.1366
     41 H15        12.5830   -5.7958   -3.9411 H         1 <0>         0.1840
@<TRIPOS>BOND
     1    1    6 ar
     2    1    2 ar
     3    1   29 1
     4    2    3 ar
     5    2   30 1
     6    3    4 ar
     7    3   31 1
     8    4   13 1
     9    4    5 ar
    10    5    6 ar
    11    5    7 1
    12    6   32 1
    13    7    8 1
    14    7   33 1
    15    7   34 1
    16    8    9 1
    17    8   35 1
    18    8   36 1
    19    9   10 1
    20    9   11 1
    21    9   14 1
    22   11   12 2
    23   11   13 am
    24   13   37 1
    25   14   15 1
    26   15   24 2
    27   15   16 1
    28   16   17 1
    29   16   18 1
    30   18   23 ar
    31   18   19 ar
    32   19   20 ar
    33   19   38 1
    34   20   21 ar
    35   20   25 1
    36   21   22 ar
    37   21   39 1
    38   22   23 ar
    39   22   40 1
    40   23   24 1
    41   25   26 1
    42   26   27 1
    43   26   28 1
    44   26   41 1
@<TRIPOS>MOLECULE
ZINC04427000
   52    54     0     0     0
SMALL
USER_CHARGES

@<TRIPOS>ATOM
      1 C1          0.9340    4.8645   -2.0911 C.3       1 <0>        -0.1383
      2 C2          1.6901    3.8165   -1.2719 C.3       1 <0>        -0.0300
      3 C3          2.9146    4.4636   -0.6217 C.3       1 <0>        -0.1390
      4 C4          0.7702    3.2584   -0.1842 C.3       1 <0>        -0.1449
      5 C5          2.1349    2.6966   -2.1770 C.ar      1 <0>        -0.0685
      6 C6          1.6958    1.4062   -1.9469 C.ar      1 <0>        -0.1174
      7 C7          2.1038    0.3790   -2.7770 C.ar      1 <0>        -0.1106
      8 C8          2.9505    0.6422   -3.8376 C.ar      1 <0>        -0.0702
      9 C9          3.3889    1.9328   -4.0682 C.ar      1 <0>        -0.0973
     10 C10         2.9774    2.9607   -3.2406 C.ar      1 <0>        -0.1125
     11 C11         3.3961   -0.4779   -4.7420 C.3       1 <0>         0.1167
     12 H1          2.7625   -1.3509   -4.5857 H         1 <0>         0.0992
     13 C12         3.3073   -0.0361   -6.1800 C.2       1 <0>        -0.2563
     14 C13         2.1835    0.1675   -6.9693 C.2       1 <0>         0.1365
     15 N1          2.5847    0.5516   -8.1579 N.2       1 <0>        -0.2583
     16 N2          3.9874    0.6033   -8.1573 N.pl3     1 <0>        -0.4487
     17 H2          4.5499    0.8573   -8.9056 H         1 <0>         0.4460
     18 C14         4.4120    0.2389   -6.9368 C.2       1 <0>         0.2713
     19 O1          5.6751    0.1325   -6.4545 O.3       1 <0>        -0.2315
     20 C15         5.8442   -0.5162   -5.2844 C.2       1 <0>         0.4385
     21 C16         4.8320   -0.8314   -4.4448 C.2       1 <0>        -0.2561
     22 C17         5.1335   -1.5268   -3.2298 C.1       1 <0>         0.2706
     23 N3          5.3727   -2.0785   -2.2660 N.1       1 <0>        -0.4380
     24 N4          7.1186   -0.8771   -4.9238 N.pl3     1 <0>        -0.8318
     25 C18         0.7523   -0.0203   -6.5364 C.3       1 <0>         0.0129
     26 C19         0.3979    1.0264   -5.4783 C.3       1 <0>        -0.1542
     27 C20        -0.1717    0.1430   -7.7449 C.3       1 <0>        -0.1396
     28 C21         0.5776   -1.4212   -5.9465 C.3       1 <0>        -0.1455
     29 H3          1.5894    5.2621   -2.8660 H         1 <0>         0.0559
     30 H4          0.0617    4.4035   -2.5543 H         1 <0>         0.0571
     31 H5          0.6123    5.6745   -1.4365 H         1 <0>         0.0576
     32 H6          2.5929    5.2736    0.0329 H         1 <0>         0.0580
     33 H7          3.4532    3.7170   -0.0381 H         1 <0>         0.0558
     34 H8          3.5699    4.8612   -1.3966 H         1 <0>         0.0559
     35 H9         -0.1022    2.7974   -0.6475 H         1 <0>         0.0594
     36 H10         1.3088    2.5118    0.3993 H         1 <0>         0.0583
     37 H11         0.4485    4.0684    0.4704 H         1 <0>         0.0576
     38 H12         1.0343    1.2005   -1.1183 H         1 <0>         0.1257
     39 H13         1.7614   -0.6293   -2.5969 H         1 <0>         0.1202
     40 H14         4.0506    2.1384   -4.8966 H         1 <0>         0.1107
     41 H15         3.3169    3.9696   -3.4230 H         1 <0>         0.1171
     42 H16         7.8657   -0.6644   -5.5048 H         1 <0>         0.4110
     43 H17         7.2721   -1.3448   -4.0879 H         1 <0>         0.4277
     44 H18         0.6686    2.0174   -5.8427 H         1 <0>         0.0544
     45 H19        -0.6731    0.9929   -5.2784 H         1 <0>         0.0617
     46 H20         0.9457    0.8148   -4.5601 H         1 <0>         0.0815
     47 H21         0.0807   -0.6028   -8.4987 H         1 <0>         0.0585
     48 H22        -1.2069    0.0071   -7.4318 H         1 <0>         0.0611
     49 H23        -0.0473    1.1410   -8.1652 H         1 <0>         0.0608
     50 H24         1.1303   -1.4925   -5.0098 H         1 <0>         0.0646
     51 H25        -0.4800   -1.6074   -5.7594 H         1 <0>         0.0675
     52 H26         0.9579   -2.1617   -6.6501 H         1 <0>         0.0586
@<TRIPOS>BOND
     1    1    2 1
     2    1   29 1
     3    1   30 1
     4    1   31 1
     5    2    3 1
     6    2    4 1
     7    2    5 1
     8    3   32 1
     9    3   33 1
    10    3   34 1
    11    4   35 1
    12    4   36 1
    13    4   37 1
    14    5   10 ar
    15    5    6 ar
    16    6    7 ar
    17    6   38 1
    18    7    8 ar
    19    7   39 1
    20    8    9 ar
    21    8   11 1
    22    9   10 ar
    23    9   40 1
    24   10   41 1
    25   11   12 1
    26   11   21 1
    27   11   13 1
    28   13   18 2
    29   13   14 1
    30   14   15 2
    31   14   25 1
    32   15   16 1
    33   16   17 1
    34   16   18 1
    35   18   19 1
    36   19   20 1
    37   20   21 2
    38   20   24 1
    39   21   22 1
    40   22   23 3
    41   24   42 1
    42   24   43 1
    43   25   26 1
    44   25   27 1
    45   25   28 1
    46   26   44 1
    47   26   45 1
    48   26   46 1
    49   27   47 1
    50   27   48 1
    51   27   49 1
    52   28   50 1
    53   28   51 1
    54   28   52 1
@<TRIPOS>MOLECULE
ZINC01438031
   53    56     0     0     0
SMALL
USER_CHARGES
[4-(2-amino-3-cyano-7,7-dimethyl-5-oxo-6,8-dihydro-4H-chromen-4-yl)phenyl] benzoate
@<TRIPOS>ATOM
      1 C1         -0.2998    1.5158    0.1210 C.3       1 <0>        -0.1421
      2 C2         -0.1806   -0.0088    0.0730 C.3       1 <0>        -0.0560
      3 C3         -1.5760   -0.6349    0.1086 C.3       1 <0>        -0.0728
      4 C4         -1.4610   -2.1388    0.0200 C.2       1 <0>         0.1704
      5 C5         -0.4504   -2.7108   -0.6599 C.2       1 <0>        -0.2613
      6 C6         -0.3394   -4.2136   -0.7510 C.3       1 <0>         0.0929
      7 H1          0.7036   -4.5070   -0.6317 H         1 <0>         0.1014
      8 C7         -1.1627   -4.8582    0.3291 C.2       1 <0>        -0.2608
      9 C8         -2.1373   -4.1576    0.9582 C.2       1 <0>         0.4259
     10 O1         -2.3989   -2.8811    0.6376 O.3       1 <0>        -0.2387
     11 N1         -2.8719   -4.7665    1.9452 N.pl3     1 <0>        -0.8289
     12 C9         -0.9159   -6.2205    0.6950 C.1       1 <0>         0.2695
     13 N2         -0.7201   -7.3012    0.9852 N.1       1 <0>        -0.4346
     14 C10        -0.8363   -4.6708   -2.0982 C.ar      1 <0>        -0.0676
     15 C11        -2.1404   -4.4111   -2.4773 C.ar      1 <0>        -0.0922
     16 C12        -2.5970   -4.8248   -3.7137 C.ar      1 <0>        -0.1149
     17 C13        -1.7488   -5.5108   -4.5711 C.ar      1 <0>         0.0824
     18 C14        -0.4423   -5.7748   -4.1861 C.ar      1 <0>        -0.1190
     19 C15         0.0109   -5.3542   -2.9508 C.ar      1 <0>        -0.0820
     20 O2         -2.1973   -5.9239   -5.7857 O.3       1 <0>        -0.2885
     21 C16        -2.3434   -7.2512   -5.9648 C.2       1 <0>         0.5046
     22 O3         -2.1793   -8.0116   -5.0318 O.2       1 <0>        -0.4833
     23 C17        -2.7032   -7.7817   -7.2956 C.ar      1 <0>        -0.1267
     24 C18        -2.8982   -6.9100   -8.3688 C.ar      1 <0>        -0.0617
     25 C19        -3.2276   -7.4127   -9.6104 C.ar      1 <0>        -0.1325
     26 C20        -3.3773   -8.7764   -9.7907 C.ar      1 <0>        -0.0811
     27 C21        -3.1916   -9.6454   -8.7301 C.ar      1 <0>        -0.1306
     28 C22        -2.8555   -9.1568   -7.4846 C.ar      1 <0>        -0.0535
     29 C23         0.5333   -1.9334   -1.3011 C.2       1 <0>         0.4048
     30 O4          1.4182   -2.4860   -1.9233 O.2       1 <0>        -0.4470
     31 C24         0.5124   -0.4305   -1.2271 C.3       1 <0>        -0.1515
     32 C25         0.6336   -0.4989    1.2721 C.3       1 <0>        -0.1559
     33 H2          0.6954    1.9592    0.0883 H         1 <0>         0.0674
     34 H3         -0.8801    1.8620   -0.7342 H         1 <0>         0.0634
     35 H4         -0.7994    1.8123    1.0433 H         1 <0>         0.0651
     36 H5         -2.0718   -0.3633    1.0405 H         1 <0>         0.1032
     37 H6         -2.1609   -0.2656   -0.7338 H         1 <0>         0.1100
     38 H7         -2.6909   -5.6886    2.1857 H         1 <0>         0.4269
     39 H8         -3.5719   -4.2745    2.4022 H         1 <0>         0.4121
     40 H9         -2.8015   -3.8806   -1.8079 H         1 <0>         0.1233
     41 H10        -3.6146   -4.6184   -4.0109 H         1 <0>         0.1316
     42 H11         0.2198   -6.3089   -4.8516 H         1 <0>         0.1273
     43 H12         1.0278   -5.5598   -2.6505 H         1 <0>         0.1317
     44 H13        -2.7864   -5.8450   -8.2283 H         1 <0>         0.1394
     45 H14        -3.3736   -6.7400  -10.4426 H         1 <0>         0.1341
     46 H15        -3.6400   -9.1644  -10.7638 H         1 <0>         0.1318
     47 H16        -3.3096  -10.7088   -8.8777 H         1 <0>         0.1351
     48 H17        -2.7108   -9.8361   -6.6576 H         1 <0>         0.1385
     49 H18         0.0096   -0.0601   -2.0081 H         1 <0>         0.0962
     50 H19         1.5327   -0.0470   -1.2381 H         1 <0>         0.1035
     51 H20         0.1345   -0.2039    2.1951 H         1 <0>         0.0649
     52 H21         0.7167   -1.5851    1.2352 H         1 <0>         0.0585
     53 H22         1.6294   -0.0570    1.2401 H         1 <0>         0.0673
@<TRIPOS>BOND
     1    1    2 1
     2    1   33 1
     3    1   34 1
     4    1   35 1
     5    2   31 1
     6    2    3 1
     7    2   32 1
     8    3    4 1
     9    3   36 1
    10    3   37 1
    11    4   10 1
    12    4    5 2
    13    5    6 1
    14    5   29 1
    15    6    7 1
    16    6    8 1
    17    6   14 1
    18    8    9 2
    19    8   12 1
    20    9   10 1
    21    9   11 1
    22   11   38 1
    23   11   39 1
    24   12   13 3
    25   14   19 ar
    26   14   15 ar
    27   15   16 ar
    28   15   40 1
    29   16   17 ar
    30   16   41 1
    31   17   18 ar
    32   17   20 1
    33   18   19 ar
    34   18   42 1
    35   19   43 1
    36   20   21 1
    37   21   22 2
    38   21   23 1
    39   23   28 ar
    40   23   24 ar
    41   24   25 ar
    42   24   44 1
    43   25   26 ar
    44   25   45 1
    45   26   27 ar
    46   26   46 1
    47   27   28 ar
    48   27   47 1
    49   28   48 1
    50   29   30 2
    51   29   31 1
    52   31   49 1
    53   31   50 1
    54   32   51 1
    55   32   52 1
    56   32   53 1
@<TRIPOS>MOLECULE
ZINC14608251
   39    41     0     0     0
SMALL
USER_CHARGES
2-[(3S)-2-oxo-3,4-dihydro-1,4-benzoxazin-3-yl]-N-[3-(trifluoromethoxy)phenyl]acetamide
@<TRIPOS>ATOM
      1 C1         -6.8061    2.9059   -5.0370 C.ar      1 <0>        -0.0892
      2 C2         -7.6524    3.9897   -4.8910 C.ar      1 <0>        -0.1348
      3 C3         -7.9525    4.4739   -3.6320 C.ar      1 <0>        -0.0851
      4 C4         -7.4050    3.8742   -2.5070 C.ar      1 <0>         0.0385
      5 C5         -6.5584    2.7795   -2.6552 C.ar      1 <0>         0.1469
      6 C6         -6.2586    2.2999   -3.9221 C.ar      1 <0>        -0.1498
      7 N1         -6.0121    2.1474   -1.5274 N.pl3     1 <0>        -0.7333
      8 C7         -6.0755    2.8654   -0.2411 C.3       1 <0>         0.1345
      9 H1         -6.0205    2.1578    0.5862 H         1 <0>         0.1381
     10 C8         -7.4074    3.5921   -0.2158 C.2       1 <0>         0.4816
     11 O1         -8.1687    3.4784    0.7156 O.2       1 <0>        -0.4196
     12 O2         -7.7058    4.3702   -1.2757 O.3       1 <0>        -0.2866
     13 C9         -4.9274    3.8723   -0.1459 C.3       1 <0>        -0.1578
     14 C10        -3.6178    3.1331   -0.0483 C.2       1 <0>         0.5268
     15 O3         -3.6040    1.9203   -0.0543 O.2       1 <0>        -0.5098
     16 N2         -2.4618    3.8196    0.0456 N.am      1 <0>        -0.6700
     17 C11        -1.2403    3.1372    0.0388 C.ar      1 <0>         0.1797
     18 C12        -0.1277    3.7088   -0.5659 C.ar      1 <0>        -0.1589
     19 C13         1.0768    3.0328   -0.5772 C.ar      1 <0>        -0.0570
     20 C14         1.1815    1.7919    0.0224 C.ar      1 <0>        -0.2042
     21 C15         0.0751    1.2190    0.6332 C.ar      1 <0>         0.1248
     22 C16        -1.1369    1.8918    0.6416 C.ar      1 <0>        -0.1289
     23 O4          0.1797   -0.0008    1.2231 O.3       1 <0>        -0.3081
     24 C17         1.4588   -0.6363    1.1769 C.3       1 <0>         0.6049
     25 F1          2.4047    0.1726    1.8157 F         1 <0>        -0.1639
     26 F2          1.3886   -1.8735    1.8262 F         1 <0>        -0.1290
     27 F3          1.8353   -0.8301   -0.1565 F         1 <0>        -0.1637
     28 H2         -6.5724    2.5329   -6.0232 H         1 <0>         0.1313
     29 H3         -8.0807    4.4593   -5.7642 H         1 <0>         0.1342
     30 H4         -8.6140    5.3207   -3.5236 H         1 <0>         0.1383
     31 H5         -5.5978    1.4535   -4.0369 H         1 <0>         0.1318
     32 H6         -5.6066    1.2687   -1.5921 H         1 <0>         0.4225
     33 H7         -5.0611    4.4931    0.7400 H         1 <0>         0.1186
     34 H8         -4.9230    4.5034   -1.0345 H         1 <0>         0.1127
     35 H9         -2.4767    4.7868    0.1180 H         1 <0>         0.4178
     36 H10        -0.2056    4.6804   -1.0310 H         1 <0>         0.1358
     37 H11         1.9395    3.4767   -1.0516 H         1 <0>         0.1401
     38 H12         2.1257    1.2678    0.0158 H         1 <0>         0.1360
     39 H13        -1.9990    1.4475    1.1168 H         1 <0>         0.1551
@<TRIPOS>BOND
     1    1    6 ar
     2    1    2 ar
     3    1   28 1
     4    2    3 ar
     5    2   29 1
     6    3    4 ar
     7    3   30 1
     8    4   12 1
     9    4    5 ar
    10    5    6 ar
    11    5    7 1
    12    6   31 1
    13    7    8 1
    14    7   32 1
    15    8    9 1
    16    8   10 1
    17    8   13 1
    18   10   11 2
    19   10   12 1
    20   13   14 1
    21   13   33 1
    22   13   34 1
    23   14   15 2
    24   14   16 am
    25   16   17 1
    26   16   35 1
    27   17   22 ar
    28   17   18 ar
    29   18   19 ar
    30   18   36 1
    31   19   20 ar
    32   19   37 1
    33   20   21 ar
    34   20   38 1
    35   21   22 ar
    36   21   23 1
    37   22   39 1
    38   23   24 1
    39   24   25 1
    40   24   26 1
    41   24   27 1
@<TRIPOS>MOLECULE
ZINC34773337
   48    50     0     0     0
SMALL
USER_CHARGES

@<TRIPOS>ATOM
      1 C1          5.0567   -8.7833    4.7729 C.3       1 <0>        -0.1151
      2 C2          4.1522   -8.1303    3.7597 C.ar      1 <0>        -0.0631
      3 C3          3.4884   -8.9058    2.8270 C.ar      1 <0>        -0.1363
      4 C4          2.6576   -8.3124    1.8955 C.ar      1 <0>        -0.0882
      5 C5          2.4884   -6.9356    1.8950 C.ar      1 <0>         0.1287
      6 C6          3.1574   -6.1550    2.8348 C.ar      1 <0>         0.1037
      7 C7          3.9840   -6.7581    3.7689 C.ar      1 <0>        -0.1901
      8 O1          2.9953   -4.8049    2.8390 O.3       1 <0>        -0.3203
      9 C8          3.7126   -4.0685    3.8316 C.3       1 <0>         0.0294
     10 N1          1.6468   -6.3315    0.9510 N.am      1 <0>        -0.6673
     11 C9          1.4646   -6.9058   -0.2546 C.2       1 <0>         0.7031
     12 O2          1.9659   -7.9872   -0.4949 O.2       1 <0>        -0.5472
     13 N2          0.7267   -6.2815   -1.1938 N.am      1 <0>        -0.6610
     14 C10         0.4856   -6.9036   -2.4188 C.2       1 <0>         0.2518
     15 C11         0.1354   -8.2498   -2.5013 C.2       1 <0>        -0.1436
     16 C12        -0.0761   -8.7519   -3.7495 C.2       1 <0>        -0.1761
     17 S1          0.1776   -7.4836   -4.8057 S.3       1 <0>         0.2789
     18 C13         0.5765   -6.2112   -3.6223 C.2       1 <0>        -0.3133
     19 C14         0.9025   -4.8536   -3.8479 C.2       1 <0>         0.5610
     20 O3          1.0453   -4.0973   -2.9051 O.2       1 <0>        -0.5098
     21 O4          1.0551   -4.3968   -5.1088 O.3       1 <0>        -0.3504
     22 C15         1.3841   -3.0147   -5.2627 C.3       1 <0>         0.0369
     23 C16        -0.4586  -10.1611   -4.0965 C.3       1 <0>        -0.0451
     24 C17        -0.2096  -11.0486   -2.8695 C.3       1 <0>        -0.1143
     25 C18        -0.8253  -10.3736   -1.6405 C.3       1 <0>        -0.1233
     26 C19        -0.0100   -9.1355   -1.2665 C.3       1 <0>        -0.0588
     27 H1          4.4802   -9.0425    5.6610 H         1 <0>         0.0724
     28 H2          5.4897   -9.6871    4.3443 H         1 <0>         0.0693
     29 H3          5.8544   -8.0927    5.0463 H         1 <0>         0.0654
     30 H4          3.6197   -9.9778    2.8263 H         1 <0>         0.1279
     31 H5          2.1406   -8.9204    1.1679 H         1 <0>         0.1573
     32 H6          4.5002   -6.1558    4.5018 H         1 <0>         0.1320
     33 H7          3.4946   -3.0059    3.7238 H         1 <0>         0.1011
     34 H8          3.4079   -4.4031    4.8232 H         1 <0>         0.0565
     35 H9          4.7823   -4.2346    3.7048 H         1 <0>         0.0564
     36 H10         1.1955   -5.5001    1.1654 H         1 <0>         0.4126
     37 H11         0.3633   -5.3994   -1.0180 H         1 <0>         0.4189
     38 H12         1.4776   -2.7793   -6.3229 H         1 <0>         0.1048
     39 H13         0.5969   -2.4026   -4.8227 H         1 <0>         0.0623
     40 H14         2.3289   -2.8080   -4.7599 H         1 <0>         0.0618
     41 H15        -1.5137  -10.1982   -4.3674 H         1 <0>         0.0911
     42 H16         0.1494  -10.5108   -4.9309 H         1 <0>         0.0887
     43 H17        -0.6743  -12.0226   -3.0226 H         1 <0>         0.0746
     44 H18         0.8629  -11.1725   -2.7195 H         1 <0>         0.0712
     45 H19        -1.8503  -10.0783   -1.8647 H         1 <0>         0.0609
     46 H20        -0.8255  -11.0734   -0.8048 H         1 <0>         0.0692
     47 H21         0.9766   -9.4399   -0.9172 H         1 <0>         0.1155
     48 H22        -0.5240   -8.5835   -0.4796 H         1 <0>         0.0600
@<TRIPOS>BOND
     1    1    2 1
     2    1   27 1
     3    1   28 1
     4    1   29 1
     5    2    7 ar
     6    2    3 ar
     7    3    4 ar
     8    3   30 1
     9    4    5 ar
    10    4   31 1
    11    5    6 ar
    12    5   10 1
    13    6    7 ar
    14    6    8 1
    15    7   32 1
    16    8    9 1
    17    9   33 1
    18    9   34 1
    19    9   35 1
    20   10   11 am
    21   10   36 1
    22   11   12 2
    23   11   13 am
    24   13   14 1
    25   13   37 1
    26   14   18 2
    27   14   15 1
    28   15   26 1
    29   15   16 2
    30   16   17 1
    31   16   23 1
    32   17   18 1
    33   18   19 1
    34   19   20 2
    35   19   21 1
    36   21   22 1
    37   22   38 1
    38   22   39 1
    39   22   40 1
    40   23   24 1
    41   23   41 1
    42   23   42 1
    43   24   25 1
    44   24   43 1
    45   24   44 1
    46   25   26 1
    47   25   45 1
    48   25   46 1
    49   26   47 1
    50   26   48 1
@<TRIPOS>MOLECULE
ZINC08236885
   53    56     0     0     0
SMALL
USER_CHARGES

@<TRIPOS>ATOM
      1 C1         -0.0187    1.5258    0.0104 C.3       1 <0>        -0.1201
      2 C2          0.0021   -0.0041    0.0020 C.3       1 <0>         0.0167
      3 C3          0.7393   -0.6747   -1.1991 C.3       1 <0>        -0.1148
      4 C4          1.0082   -2.1198   -0.7163 C.3       1 <0>        -0.1038
      5 C5          0.4031   -2.1587    0.7217 C.3       1 <0>        -0.1419
      6 C6          0.7264   -0.7008    1.2095 C.3       1 <0>        -0.0223
      7 C7          2.2323   -0.4306    1.2180 C.3       1 <0>        -0.1399
      8 C8          0.0758   -0.3606    2.5519 C.3       1 <0>        -0.1386
      9 C9         -1.1104   -2.0400    0.4981 C.2       1 <0>         0.3956
     10 O1         -1.9381   -2.9128    0.6675 O.2       1 <0>        -0.4602
     11 C10        -1.3643   -0.6993    0.0682 C.2       1 <0>        -0.0794
     12 N1         -2.5227   -0.1718   -0.2314 N.2       1 <0>        -0.1203
     13 N2         -3.5982   -0.8766   -0.1291 N.pl3     1 <0>        -0.4943
     14 C11        -4.8345   -0.3136   -0.4489 C.ar      1 <0>         0.1647
     15 C12        -4.9083    1.0045   -0.8833 C.ar      1 <0>        -0.1368
     16 C13        -6.1332    1.5581   -1.1988 C.ar      1 <0>        -0.0899
     17 C14        -7.2859    0.8027   -1.0830 C.ar      1 <0>        -0.1411
     18 C15        -7.2164   -0.5093   -0.6511 C.ar      1 <0>        -0.0863
     19 C16        -5.9944   -1.0715   -0.3393 C.ar      1 <0>        -0.1557
     20 C17         0.8723   -3.2829    1.6089 C.2       1 <0>         0.5561
     21 O2          1.4519   -3.0361    2.6452 O.2       1 <0>        -0.5188
     22 N3          0.6477   -4.5627    1.2507 N.am      1 <0>        -0.7201
     23 C18         1.1039   -5.6555    2.1131 C.3       1 <0>         0.2039
     24 C19         0.7315   -6.9761    1.4898 C.2       1 <0>        -0.0420
     25 C20         1.4935   -7.6874    0.6396 C.2       1 <0>        -0.1809
     26 C21         0.7608   -8.8500    0.3074 C.2       1 <0>        -0.2183
     27 C22        -0.4052   -8.7796    0.9745 C.2       1 <0>        -0.0260
     28 O3         -0.4149   -7.6454    1.6936 O.3       1 <0>        -0.1703
     29 H1          1.0039    1.9031    0.0027 H         1 <0>         0.0691
     30 H2         -0.5459    1.8868   -0.8726 H         1 <0>         0.0682
     31 H3         -0.5289    1.8773    0.9072 H         1 <0>         0.0651
     32 H4          0.1022   -0.6798   -2.0834 H         1 <0>         0.0760
     33 H5          1.6777   -0.1604   -1.4063 H         1 <0>         0.0894
     34 H6          0.5039   -2.8384   -1.3624 H         1 <0>         0.0739
     35 H7          2.0795   -2.3190   -0.6853 H         1 <0>         0.0920
     36 H8          2.4085    0.6424    1.2924 H         1 <0>         0.0666
     37 H9          2.6869   -0.9336    2.0715 H         1 <0>         0.0728
     38 H10         2.6744   -0.8083    0.2960 H         1 <0>         0.0636
     39 H11        -0.9632   -0.6902    2.5460 H         1 <0>         0.0440
     40 H12         0.6128   -0.8662    3.3544 H         1 <0>         0.0761
     41 H13         0.1143    0.7170    2.7116 H         1 <0>         0.0686
     42 H14        -3.5477   -1.7979    0.1702 H         1 <0>         0.4039
     43 H15        -4.0086    1.5951   -0.9736 H         1 <0>         0.1375
     44 H16        -6.1914    2.5825   -1.5361 H         1 <0>         0.1300
     45 H17        -8.2427    1.2385   -1.3301 H         1 <0>         0.1267
     46 H18        -8.1186   -1.0963   -0.5618 H         1 <0>         0.1304
     47 H19        -5.9403   -2.0976   -0.0067 H         1 <0>         0.1266
     48 H20         0.1841   -4.7601    0.4218 H         1 <0>         0.4049
     49 H21         2.1864   -5.6003    2.2278 H         1 <0>         0.1030
     50 H22         0.6300   -5.5688    3.0909 H         1 <0>         0.0867
     51 H23         2.4762   -7.4211    0.2793 H         1 <0>         0.1517
     52 H24         1.0764   -9.6423   -0.3552 H         1 <0>         0.1520
     53 H25        -1.1974   -9.5129    0.9408 H         1 <0>         0.2058
@<TRIPOS>BOND
     1    1    2 1
     2    1   29 1
     3    1   30 1
     4    1   31 1
     5    2    6 1
     6    2   11 1
     7    2    3 1
     8    3    4 1
     9    3   32 1
    10    3   33 1
    11    4    5 1
    12    4   34 1
    13    4   35 1
    14    5    6 1
    15    5    9 1
    16    5   20 1
    17    6    7 1
    18    6    8 1
    19    7   36 1
    20    7   37 1
    21    7   38 1
    22    8   39 1
    23    8   40 1
    24    8   41 1
    25    9   10 2
    26    9   11 1
    27   11   12 2
    28   12   13 1
    29   13   14 1
    30   13   42 1
    31   14   19 ar
    32   14   15 ar
    33   15   16 ar
    34   15   43 1
    35   16   17 ar
    36   16   44 1
    37   17   18 ar
    38   17   45 1
    39   18   19 ar
    40   18   46 1
    41   19   47 1
    42   20   21 2
    43   20   22 am
    44   22   23 1
    45   22   48 1
    46   23   24 1
    47   23   49 1
    48   23   50 1
    49   24   28 1
    50   24   25 2
    51   25   26 1
    52   25   51 1
    53   26   27 2
    54   26   52 1
    55   27   28 1
    56   27   53 1
@<TRIPOS>MOLECULE
ZINC57520206
   58    60     0     0     0
SMALL
USER_CHARGES

@<TRIPOS>ATOM
      1 C1          0.6474    1.3647   -0.1556 C.3       1 <0>        -0.1471
      2 C2          0.0062   -0.0196   -0.0397 C.3       1 <0>        -0.0605
      3 C3          0.5220   -0.7167    1.2208 C.3       1 <0>        -0.1545
      4 C4         -1.5143    0.1281    0.0452 C.3       1 <0>        -0.1451
      5 C5          0.3696   -0.8545   -1.2692 C.3       1 <0>        -0.0831
      6 H1          0.0135   -1.8757   -1.1332 H         1 <0>         0.0748
      7 C6         -0.2865   -0.2467   -2.5106 C.3       1 <0>        -0.1152
      8 C7          0.0769   -1.0816   -3.7401 C.3       1 <0>        -0.1225
      9 C8          1.5963   -1.0909   -3.9193 C.3       1 <0>        -0.1171
     10 C9          2.2525   -1.6987   -2.6779 C.3       1 <0>        -0.1313
     11 C10         1.8891   -0.8638   -1.4484 C.3       1 <0>         0.1657
     12 H2          2.2452    0.1573   -1.5844 H         1 <0>         0.0985
     13 N1          2.5174   -1.4458   -0.2598 N.am      1 <0>        -0.7330
     14 C11         3.7511   -1.0507    0.1121 C.2       1 <0>         0.7026
     15 O1          4.3426   -0.2113   -0.5388 O.2       1 <0>        -0.5687
     16 N2          4.3291   -1.5862    1.2056 N.am      1 <0>        -0.6875
     17 C12         5.6501   -1.2579    1.5305 C.ar      1 <0>         0.1937
     18 C13         6.4901   -2.2182    2.0807 C.ar      1 <0>        -0.1723
     19 C14         7.7944   -1.8953    2.4013 C.ar      1 <0>        -0.0601
     20 C15         8.2681   -0.6170    2.1766 C.ar      1 <0>        -0.1896
     21 C16         7.4331    0.3481    1.6271 C.ar      1 <0>         0.2286
     22 C17         6.1239    0.0249    1.2982 C.ar      1 <0>        -0.1521
     23 N3          7.9122    1.6405    1.4010 N.pl3     1 <0>        -0.9280
     24 C18         7.1204    2.8820    1.3325 C.3       1 <0>         0.0634
     25 C19         7.9577    4.0916    1.7880 C.3       1 <0>        -0.1290
     26 C20         9.3302    3.9273    1.0682 C.3       1 <0>        -0.5891
     27 S1          9.5063    2.0989    1.1591 S.o2      1 <0>         2.5559
     28 O2         10.1949    1.7160    2.3417 O.2       1 <0>        -0.9446
     29 O3          9.8663    1.5662   -0.1081 O.2       1 <0>        -0.9410
     30 H3          1.7306    1.2595   -0.2160 H         1 <0>         0.0599
     31 H4          0.2799    1.8614   -1.0536 H         1 <0>         0.0572
     32 H5          0.3885    1.9595    0.7204 H         1 <0>         0.0524
     33 H6          0.0496   -0.2762    2.0988 H         1 <0>         0.0528
     34 H7          0.2813   -1.7787    1.1730 H         1 <0>         0.0518
     35 H8          1.6027   -0.5918    1.2886 H         1 <0>         0.0671
     36 H9         -1.8818    0.6248   -0.8528 H         1 <0>         0.0598
     37 H10        -1.9711   -0.8581    0.1277 H         1 <0>         0.0541
     38 H11        -1.7732    0.7229    0.9211 H         1 <0>         0.0540
     39 H12        -1.3690   -0.2400   -2.3829 H         1 <0>         0.0722
     40 H13         0.0696    0.7745   -2.6466 H         1 <0>         0.0679
     41 H14        -0.2792   -2.1027   -3.6041 H         1 <0>         0.0621
     42 H15        -0.3906   -0.6486   -4.6244 H         1 <0>         0.0644
     43 H16         1.8553   -1.6857   -4.7952 H         1 <0>         0.0649
     44 H17         1.9524   -0.0698   -4.0553 H         1 <0>         0.0644
     45 H18         1.8964   -2.7199   -2.5419 H         1 <0>         0.0623
     46 H19         3.3350   -1.7054   -2.8056 H         1 <0>         0.0675
     47 H20         2.0455   -2.1156    0.2595 H         1 <0>         0.3986
     48 H21         3.8294   -2.1991    1.7674 H         1 <0>         0.4075
     49 H22         6.1227   -3.2182    2.2582 H         1 <0>         0.1280
     50 H23         8.4453   -2.6437    2.8289 H         1 <0>         0.1347
     51 H24         9.2882   -0.3675    2.4287 H         1 <0>         0.1335
     52 H25         5.4741    0.7720    0.8669 H         1 <0>         0.1461
     53 H26         6.7901    3.0405    0.3059 H         1 <0>         0.0879
     54 H27         6.2472    2.7866    1.9779 H         1 <0>         0.1024
     55 H28         7.4782    5.0211    1.4813 H         1 <0>         0.1193
     56 H29         8.0927    4.0730    2.8695 H         1 <0>         0.0991
     57 H30         9.2815    4.2744    0.0361 H         1 <0>         0.1475
     58 H31        10.1284    4.4284    1.6159 H         1 <0>         0.1483
@<TRIPOS>BOND
     1    1    2 1
     2    1   30 1
     3    1   31 1
     4    1   32 1
     5    2    3 1
     6    2    4 1
     7    2    5 1
     8    3   33 1
     9    3   34 1
    10    3   35 1
    11    4   36 1
    12    4   37 1
    13    4   38 1
    14    5    6 1
    15    5   11 1
    16    5    7 1
    17    7    8 1
    18    7   39 1
    19    7   40 1
    20    8    9 1
    21    8   41 1
    22    8   42 1
    23    9   10 1
    24    9   43 1
    25    9   44 1
    26   10   11 1
    27   10   45 1
    28   10   46 1
    29   11   12 1
    30   11   13 1
    31   13   14 am
    32   13   47 1
    33   14   15 2
    34   14   16 am
    35   16   17 1
    36   16   48 1
    37   17   22 ar
    38   17   18 ar
    39   18   19 ar
    40   18   49 1
    41   19   20 ar
    42   19   50 1
    43   20   21 ar
    44   20   51 1
    45   21   22 ar
    46   21   23 1
    47   22   52 1
    48   23   27 1
    49   23   24 1
    50   24   25 1
    51   24   53 1
    52   24   54 1
    53   25   26 1
    54   25   55 1
    55   25   56 1
    56   26   27 1
    57   26   57 1
    58   26   58 1
    59   27   28 2
    60   27   29 2
@<TRIPOS>MOLECULE
ZINC67626730
   52    55     0     0     0
SMALL
USER_CHARGES

@<TRIPOS>ATOM
      1 C1         -0.0167    1.3786    0.0096 C.ar      1 <0>        -0.1764
      2 C2          1.1695    2.0894    0.0021 C.ar      1 <0>        -0.0730
      3 C3          2.3774    1.4200   -0.0130 C.ar      1 <0>        -0.1929
      4 C4          2.3998    0.0311   -0.0206 C.ar      1 <0>         0.2119
      5 C5          1.2064   -0.6798   -0.0130 C.ar      1 <0>        -0.1965
      6 C6          0.0021   -0.0041    0.0020 C.ar      1 <0>        -0.0728
      7 N1          3.6196   -0.6492   -0.0363 N.pl3     1 <0>        -0.7382
      8 C7          3.6414   -2.1140   -0.0443 C.3       1 <0>         0.1425
      9 H1          2.7989   -2.5077   -0.6129 H         1 <0>         0.0993
     10 C8          4.9840   -2.6399   -0.6172 C.3       1 <0>        -0.1372
     11 C9          5.0914   -4.0265    0.0650 C.3       1 <0>         0.1007
     12 N2          4.5486   -3.8232    1.4205 N.am      1 <0>        -0.6373
     13 C10         3.6347   -2.6680    1.3960 C.3       1 <0>         0.1112
     14 C11         4.8373   -4.5728    2.5028 C.2       1 <0>         0.7224
     15 O1          4.3283   -4.3124    3.5759 O.2       1 <0>        -0.5823
     16 N3          5.6901   -5.6109    2.3956 N.am      1 <0>        -0.7434
     17 C12         6.0039   -6.4256    3.5720 C.3       1 <0>         0.1447
     18 C13         6.9887   -7.5290    3.1802 C.3       1 <0>        -0.0817
     19 C14         7.3115   -8.3671    4.3904 C.ar      1 <0>        -0.0790
     20 C15         8.4317   -8.0840    5.1475 C.ar      1 <0>        -0.1104
     21 C16         8.7290   -8.8541    6.2587 C.ar      1 <0>         0.0752
     22 C17         7.9046   -9.9089    6.6114 C.ar      1 <0>        -0.1090
     23 C18         6.7833  -10.1948    5.8555 C.ar      1 <0>        -0.1727
     24 C19         6.4800   -9.4195    4.7471 C.ar      1 <0>         0.1322
     25 O2          5.3719   -9.6815    4.0029 O.3       1 <0>        -0.3218
     26 C20         4.7603  -10.9620    4.1829 C.3       1 <0>         0.2199
     27 O3          4.6286  -11.2129    5.5872 O.3       1 <0>        -0.3803
     28 C21         5.8948  -11.3486    6.2466 C.3       1 <0>         0.0999
     29 F1          9.8244   -8.5765    6.9992 F         1 <0>        -0.1355
     30 H2         -0.9598    1.9046    0.0260 H         1 <0>         0.1182
     31 H3          1.1513    3.1692    0.0077 H         1 <0>         0.1209
     32 H4          3.3034    1.9757   -0.0192 H         1 <0>         0.1191
     33 H5          1.2204   -1.7597   -0.0193 H         1 <0>         0.1195
     34 H6         -0.9261   -0.5561    0.0079 H         1 <0>         0.1206
     35 H7          4.4523   -0.1517   -0.0419 H         1 <0>         0.4019
     36 H8          4.9334   -2.7407   -1.7014 H         1 <0>         0.0936
     37 H9          5.8129   -1.9953   -0.3246 H         1 <0>         0.0835
     38 H10         4.4961   -4.7624   -0.4756 H         1 <0>         0.0737
     39 H11         6.1328   -4.3441    0.1170 H         1 <0>         0.0772
     40 H12         3.9859   -1.9035    2.0889 H         1 <0>         0.0734
     41 H13         2.6270   -2.9826    1.6675 H         1 <0>         0.0710
     42 H14         6.0961   -5.8185    1.5395 H         1 <0>         0.3954
     43 H15         6.4509   -5.7960    4.3413 H         1 <0>         0.0680
     44 H16         5.0887   -6.8754    3.9571 H         1 <0>         0.0730
     45 H17         6.5417   -8.1587    2.4109 H         1 <0>         0.0881
     46 H18         7.9039   -7.0793    2.7952 H         1 <0>         0.0830
     47 H19         9.0758   -7.2620    4.8722 H         1 <0>         0.1460
     48 H20         8.1382  -10.5095    7.4782 H         1 <0>         0.1435
     49 H21         3.7751  -10.9657    3.7166 H         1 <0>         0.1455
     50 H22         5.3848  -11.7325    3.7306 H         1 <0>         0.0659
     51 H23         6.3689  -12.2868    5.9584 H         1 <0>         0.0805
     52 H24         5.7363  -11.3366    7.3249 H         1 <0>         0.1188
@<TRIPOS>BOND
     1    1    6 ar
     2    1    2 ar
     3    1   30 1
     4    2    3 ar
     5    2   31 1
     6    3    4 ar
     7    3   32 1
     8    4    5 ar
     9    4    7 1
    10    5    6 ar
    11    5   33 1
    12    6   34 1
    13    7    8 1
    14    7   35 1
    15    8    9 1
    16    8   13 1
    17    8   10 1
    18   10   11 1
    19   10   36 1
    20   10   37 1
    21   11   12 1
    22   11   38 1
    23   11   39 1
    24   12   13 1
    25   12   14 am
    26   13   40 1
    27   13   41 1
    28   14   15 2
    29   14   16 am
    30   16   17 1
    31   16   42 1
    32   17   18 1
    33   17   43 1
    34   17   44 1
    35   18   19 1
    36   18   45 1
    37   18   46 1
    38   19   24 ar
    39   19   20 ar
    40   20   21 ar
    41   20   47 1
    42   21   22 ar
    43   21   29 1
    44   22   23 ar
    45   22   48 1
    46   23   28 1
    47   23   24 ar
    48   24   25 1
    49   25   26 1
    50   26   27 1
    51   26   49 1
    52   26   50 1
    53   27   28 1
    54   28   51 1
    55   28   52 1
@<TRIPOS>MOLECULE
ZINC12413357
   56    59     0     0     0
SMALL
USER_CHARGES
(4S)-2-amino-1-(4-ethylphenyl)-7,7-dimethyl-4-(5-nitro-2-thienyl)-5-oxo-6,8-dihydro-4H-quinoline-3-carbonitrile
@<TRIPOS>ATOM
      1 C1          0.8804   12.1181    1.3134 C.3       1 <0>        -0.1491
      2 C2          1.0917   11.1755    0.1270 C.3       1 <0>        -0.0925
      3 C3          0.0005   10.1362    0.1106 C.ar      1 <0>        -0.0552
      4 C4         -1.1704   10.3760   -0.5851 C.ar      1 <0>        -0.1070
      5 C5         -2.1723    9.4257   -0.6021 C.ar      1 <0>        -0.1056
      6 C6         -2.0030    8.2280    0.0805 C.ar      1 <0>         0.0826
      7 C7         -0.8282    7.9926    0.7830 C.ar      1 <0>        -0.0902
      8 C8          0.1724    8.9445    0.7909 C.ar      1 <0>        -0.1046
      9 N1         -3.0165    7.2627    0.0653 N.pl3     1 <0>        -0.4880
     10 C9         -3.0256    6.3015   -0.9115 C.2       1 <0>         0.2501
     11 C10        -3.7168    5.1546   -0.7413 C.2       1 <0>        -0.2798
     12 C11        -4.4941    4.8990    0.5253 C.3       1 <0>         0.1439
     13 H1         -5.4540    4.4496    0.2708 H         1 <0>         0.1172
     14 C12        -4.7323    6.1731    1.2806 C.2       1 <0>        -0.2629
     15 C13        -3.9970    7.2862    1.0313 C.2       1 <0>         0.4966
     16 N2         -4.2307    8.4379    1.7440 N.pl3     1 <0>        -0.8438
     17 C14        -5.7544    6.2167    2.2827 C.1       1 <0>         0.2687
     18 N3         -6.5653    6.2513    3.0776 N.1       1 <0>        -0.4384
     19 C15        -3.7182    3.9456    1.3971 C.2       1 <0>        -0.0577
     20 C16        -4.0720    2.7149    1.8416 C.2       1 <0>        -0.1761
     21 C17        -3.1875    2.0091    2.6355 C.2       1 <0>        -0.0314
     22 C18        -1.9973    2.5732    2.9555 C.2       1 <0>        -0.1748
     23 S1         -2.0946    4.1439    2.1124 S.3       1 <0>         0.1703
     24 N4         -0.8990    2.0262    3.7838 N.pl3     1 <0>         0.0774
     25 O1         -1.0074    0.9223    4.2869 O.2       1 <0>        -0.1459
     26 O2          0.1151    2.6779    3.9580 O.3       1 <0>        -0.1531
     27 C19        -3.7315    4.1628   -1.7378 C.2       1 <0>         0.4063
     28 O3         -4.3764    3.1484   -1.5601 O.2       1 <0>        -0.4610
     29 C20        -2.9639    4.3346   -3.0200 C.3       1 <0>        -0.1502
     30 C21        -1.7517    5.2347   -2.7580 C.3       1 <0>        -0.0531
     31 C22        -2.2491    6.5609   -2.1790 C.3       1 <0>        -0.0910
     32 C23        -0.8142    4.5561   -1.7573 C.3       1 <0>        -0.1558
     33 C24        -1.0067    5.4886   -4.0700 C.3       1 <0>        -0.1418
     34 H2         -0.0880   12.6095    1.2191 H         1 <0>         0.0567
     35 H3          0.9090   11.5466    2.2411 H         1 <0>         0.0575
     36 H4          1.6696   12.8698    1.3253 H         1 <0>         0.0629
     37 H5          2.0600   10.6841    0.2213 H         1 <0>         0.0781
     38 H6          1.0631   11.7470   -0.8007 H         1 <0>         0.0776
     39 H7         -1.3016   11.3077   -1.1153 H         1 <0>         0.1343
     40 H8         -3.0863    9.6135   -1.1458 H         1 <0>         0.1327
     41 H9         -0.6955    7.0643    1.3187 H         1 <0>         0.1318
     42 H10         1.0881    8.7601    1.3329 H         1 <0>         0.1354
     43 H11        -3.7677    9.2569    1.5077 H         1 <0>         0.4082
     44 H12        -4.8587    8.4318    2.4833 H         1 <0>         0.4217
     45 H13        -5.0286    2.2901    1.5755 H         1 <0>         0.1593
     46 H14        -3.4424    1.0243    2.9982 H         1 <0>         0.1596
     47 H15        -2.6567    3.4409   -3.3469 H         1 <0>         0.0908
     48 H16        -3.6063    4.7946   -3.7709 H         1 <0>         0.1046
     49 H17        -1.3963    7.2026   -1.9575 H         1 <0>         0.0982
     50 H18        -2.8949    7.0544   -2.9053 H         1 <0>         0.1066
     51 H19        -0.4761    3.6033   -2.1646 H         1 <0>         0.0655
     52 H20         0.0469    5.1985   -1.5729 H         1 <0>         0.0642
     53 H21        -1.3454    4.3831   -0.8214 H         1 <0>         0.0591
     54 H22        -1.6748    5.9785   -4.7783 H         1 <0>         0.0620
     55 H23        -0.1452    6.1289   -3.8805 H         1 <0>         0.0630
     56 H24        -0.6693    4.5392   -4.4858 H         1 <0>         0.0662
@<TRIPOS>BOND
     1    1    2 1
     2    1   34 1
     3    1   35 1
     4    1   36 1
     5    2    3 1
     6    2   37 1
     7    2   38 1
     8    3    8 ar
     9    3    4 ar
    10    4    5 ar
    11    4   39 1
    12    5    6 ar
    13    5   40 1
    14    6    7 ar
    15    6    9 1
    16    7    8 ar
    17    7   41 1
    18    8   42 1
    19    9   15 1
    20    9   10 1
    21   10   31 1
    22   10   11 2
    23   11   12 1
    24   11   27 1
    25   12   13 1
    26   12   14 1
    27   12   19 1
    28   14   15 2
    29   14   17 1
    30   15   16 1
    31   16   43 1
    32   16   44 1
    33   17   18 3
    34   19   23 1
    35   19   20 2
    36   20   21 1
    37   20   45 1
    38   21   22 2
    39   21   46 1
    40   22   23 1
    41   22   24 1
    42   24   25 2
    43   24   26 1
    44   27   28 2
    45   27   29 1
    46   29   30 1
    47   29   47 1
    48   29   48 1
    49   30   31 1
    50   30   32 1
    51   30   33 1
    52   31   49 1
    53   31   50 1
    54   32   51 1
    55   32   52 1
    56   32   53 1
    57   33   54 1
    58   33   55 1
    59   33   56 1
@<TRIPOS>MOLECULE
ZINC21123405
   60    64     0     0     0
SMALL
USER_CHARGES
N-(1-adamantylcarbamoyl)-2-[[4-methyl-5-(o-tolyl)-1,2,4-triazol-3-yl]sulfanyl]acetamide
@<TRIPOS>ATOM
      1 C1          0.2370    7.7458   -2.0919 C.3       1 <0>        -0.1223
      2 C2          1.4570    8.2259   -1.3488 C.ar      1 <0>        -0.0376
      3 C3          1.9492    9.4950   -1.5746 C.ar      1 <0>        -0.1200
      4 C4          3.0724    9.9352   -0.8975 C.ar      1 <0>        -0.0962
      5 C5          3.7059    9.1094    0.0145 C.ar      1 <0>        -0.1245
      6 C6          3.2210    7.8404    0.2534 C.ar      1 <0>        -0.0924
      7 C7          2.0883    7.3899   -0.4268 C.ar      1 <0>        -0.0287
      8 C8          1.5633    6.0308   -0.1761 C.2       1 <0>         0.2319
      9 N1          0.3156    5.7107    0.0765 N.2       1 <0>        -0.2630
     10 N2          0.2128    4.4400    0.2383 N.2       1 <0>        -0.2923
     11 C9          1.3908    3.8717    0.1076 C.2       1 <0>         0.1405
     12 N3          2.2903    4.8627   -0.1639 N.pl3     1 <0>        -0.4561
     13 C10         3.7293    4.7133   -0.3942 C.3       1 <0>         0.0656
     14 S1          1.7426    2.1509    0.2489 S.3       1 <0>         0.0863
     15 C11         0.0849    1.5198    0.6090 C.3       1 <0>        -0.1505
     16 C12         0.1423    0.0230    0.7747 C.2       1 <0>         0.5416
     17 O1          1.1994   -0.5594    0.6607 O.2       1 <0>        -0.4556
     18 N4         -0.9816   -0.6681    1.0498 N.am      1 <0>        -0.7003
     19 C13        -0.9303   -2.0068    1.1980 C.2       1 <0>         0.6992
     20 O2          0.1296   -2.5906    1.0837 O.2       1 <0>        -0.5264
     21 N5         -2.0541   -2.6979    1.4731 N.am      1 <0>        -0.7418
     22 C14        -1.9983   -4.1529    1.6342 C.3       1 <0>         0.2047
     23 C15        -1.4796   -4.7895    0.3433 C.3       1 <0>        -0.1251
     24 C16        -1.4213   -6.3091    0.5115 C.3       1 <0>        -0.0824
     25 C17        -2.8226   -6.8426    0.8160 C.3       1 <0>        -0.1123
     26 C18        -3.3413   -6.2061    2.1069 C.3       1 <0>        -0.0805
     27 C19        -3.3996   -4.6865    1.9386 C.3       1 <0>        -0.1133
     28 C20        -2.4005   -6.5556    3.2618 C.3       1 <0>        -0.1123
     29 C21        -0.9992   -6.0221    2.9573 C.3       1 <0>        -0.0824
     30 C22        -0.4805   -6.6586    1.6664 C.3       1 <0>        -0.1110
     31 C23        -1.0575   -4.5025    2.7890 C.3       1 <0>        -0.1251
     32 H1         -0.1157    8.5383   -2.7683 H         1 <0>         0.0689
     33 H2         -0.5569    7.4980   -1.3720 H         1 <0>         0.0890
     34 H3          0.4932    6.8508   -2.6778 H         1 <0>         0.0651
     35 H4          1.4590   10.1447   -2.2846 H         1 <0>         0.1315
     36 H5          3.4563   10.9277   -1.0812 H         1 <0>         0.1291
     37 H6          4.5822    9.4592    0.5400 H         1 <0>         0.1300
     38 H7          3.7163    7.1969    0.9654 H         1 <0>         0.1227
     39 H8          4.0047    3.6512   -0.3167 H         1 <0>         0.1003
     40 H9          4.2833    5.2917    0.3598 H         1 <0>         0.0925
     41 H10         3.9804    5.0848   -1.3986 H         1 <0>         0.0939
     42 H11        -0.2880    1.9774    1.5372 H         1 <0>         0.1349
     43 H12        -0.5915    1.7712   -0.2212 H         1 <0>         0.1350
     44 H13        -1.9408   -0.1396    1.1534 H         1 <0>         0.4363
     45 H14        -3.0133   -2.1695    1.5767 H         1 <0>         0.4160
     46 H15        -2.1560   -4.5382   -0.4870 H         1 <0>         0.0591
     47 H16        -0.4721   -4.4059    0.1244 H         1 <0>         0.0868
     48 H17        -1.0484   -6.7667   -0.4167 H         1 <0>         0.0725
     49 H18        -3.4990   -6.5913   -0.0142 H         1 <0>         0.0627
     50 H19        -2.7807   -7.9351    0.9370 H         1 <0>         0.0654
     51 H20        -4.3487   -6.5898    2.3257 H         1 <0>         0.0759
     52 H21        -3.7726   -4.2288    2.8667 H         1 <0>         0.0696
     53 H22        -4.0760   -4.4352    1.1083 H         1 <0>         0.0696
     54 H23        -2.7735   -6.0979    4.1899 H         1 <0>         0.0627
     55 H24        -2.3586   -7.6481    3.3829 H         1 <0>         0.0654
     56 H25        -0.3227   -6.2734    3.7875 H         1 <0>         0.0725
     57 H26        -0.4386   -7.7511    1.7874 H         1 <0>         0.0632
     58 H27         0.5270   -6.2750    1.4476 H         1 <0>         0.0656
     59 H28        -0.0500   -4.1189    2.5701 H         1 <0>         0.0868
     60 H29        -1.4304   -4.0449    3.7172 H         1 <0>         0.0591
@<TRIPOS>BOND
     1    1    2 1
     2    1   32 1
     3    1   33 1
     4    1   34 1
     5    2    7 ar
     6    2    3 ar
     7    3    4 ar
     8    3   35 1
     9    4    5 ar
    10    4   36 1
    11    5    6 ar
    12    5   37 1
    13    6    7 ar
    14    6   38 1
    15    7    8 1
    16    8   12 1
    17    8    9 2
    18    9   10 1
    19   10   11 2
    20   11   12 1
    21   11   14 1
    22   12   13 1
    23   13   39 1
    24   13   40 1
    25   13   41 1
    26   14   15 1
    27   15   16 1
    28   15   42 1
    29   15   43 1
    30   16   17 2
    31   16   18 am
    32   18   19 am
    33   18   44 1
    34   19   20 2
    35   19   21 am
    36   21   22 1
    37   21   45 1
    38   22   27 1
    39   22   31 1
    40   22   23 1
    41   23   24 1
    42   23   46 1
    43   23   47 1
    44   24   30 1
    45   24   25 1
    46   24   48 1
    47   25   26 1
    48   25   49 1
    49   25   50 1
    50   26   27 1
    51   26   28 1
    52   26   51 1
    53   27   52 1
    54   27   53 1
    55   28   29 1
    56   28   54 1
    57   28   55 1
    58   29   30 1
    59   29   31 1
    60   29   56 1
    61   30   57 1
    62   30   58 1
    63   31   59 1
    64   31   60 1
@<TRIPOS>MOLECULE
ZINC32636409
   42    46     0     0     0
SMALL
USER_CHARGES
2-[[4-amino-5-(4-chlorophenyl)-1,2,4-triazol-3-yl]sulfanylmethyl]pyrimido[2,1-b][1,3]benzothiazol-4-one
@<TRIPOS>ATOM
      1 C1         -1.2097    3.1415    0.0309 C.ar      1 <0>        -0.0925
      2 C2         -1.2169    1.7564    0.0173 C.ar      1 <0>        -0.0926
      3 C3         -0.0126    1.0758    0.0080 C.ar      1 <0>        -0.0518
      4 C4          1.1665    1.7850    0.0005 C.ar      1 <0>        -0.1369
      5 C5          1.2066    3.1829    0.0077 C.ar      1 <0>         0.0838
      6 C6         -0.0316    3.8485    0.0235 C.ar      1 <0>        -0.0814
      7 N1          2.4718    3.7813   -0.0016 N.am      1 <0>        -0.4790
      8 C7          2.7076    5.1286    0.0034 C.2       1 <0>         0.5274
      9 O1          1.7730    5.9134    0.0165 O.2       1 <0>        -0.5101
     10 C8          4.0213    5.6038   -0.0071 C.2       1 <0>        -0.2639
     11 C9          5.0632    4.7192   -0.0222 C.2       1 <0>         0.2079
     12 N2          4.8022    3.4138   -0.0271 N.2       1 <0>        -0.4851
     13 C10         3.5688    2.9695   -0.0169 C.2       1 <0>         0.3523
     14 S1          2.8823    1.3274   -0.0190 S.3       1 <0>         0.1743
     15 C11         6.4865    5.2143   -0.0337 C.3       1 <0>        -0.0591
     16 S2          7.2178    4.9865    1.6063 S.3       1 <0>         0.0372
     17 C12         8.8318    5.6300    1.3137 C.2       1 <0>         0.1307
     18 N3          9.2826    6.1185    0.1799 N.2       1 <0>        -0.2731
     19 N4         10.5020    6.4999    0.3175 N.2       1 <0>        -0.2479
     20 C13        10.9048    6.2785    1.5471 C.2       1 <0>         0.1952
     21 N5          9.8456    5.7195    2.2244 N.pl3     1 <0>        -0.2057
     22 N6          9.8154    5.3321    3.5340 N.3       1 <0>        -0.7652
     23 C14        12.2421    6.5785    2.1011 C.ar      1 <0>        -0.0009
     24 C15        12.6372    6.0217    3.3186 C.ar      1 <0>        -0.1061
     25 C16        13.8878    6.3023    3.8285 C.ar      1 <0>        -0.1001
     26 C17        14.7471    7.1417    3.1397 C.ar      1 <0>        -0.0257
     27 C18        14.3589    7.7009    1.9338 C.ar      1 <0>        -0.0994
     28 C19        13.1125    7.4243    1.4117 C.ar      1 <0>        -0.0634
     29 Cl1        16.3171    7.4950    3.7909 Cl        1 <0>        -0.0576
     30 H1         -2.1481    3.6760    0.0424 H         1 <0>         0.1430
     31 H2         -2.1512    1.2145    0.0184 H         1 <0>         0.1479
     32 H3          0.0021   -0.0041    0.0020 H         1 <0>         0.1483
     33 H4         -0.0571    4.9282    0.0296 H         1 <0>         0.1553
     34 H5          4.2130    6.6667   -0.0029 H         1 <0>         0.1715
     35 H6          7.0664    4.6461   -0.7759 H         1 <0>         0.1320
     36 H7          6.5011    6.2823   -0.2966 H         1 <0>         0.1298
     37 H8         10.7067    5.4594    4.1659 H         1 <0>         0.4443
     38 H9          8.8997    4.8929    3.9567 H         1 <0>         0.4460
     39 H10        11.9664    5.3699    3.8585 H         1 <0>         0.1315
     40 H11        14.1959    5.8694    4.7688 H         1 <0>         0.1435
     41 H12        15.0332    8.3551    1.4013 H         1 <0>         0.1456
     42 H13        12.8106    7.8615    0.4714 H         1 <0>         0.1501
@<TRIPOS>BOND
     1    1    6 ar
     2    1    2 ar
     3    1   30 1
     4    2    3 ar
     5    2   31 1
     6    3    4 ar
     7    3   32 1
     8    4   14 1
     9    4    5 ar
    10    5    6 ar
    11    5    7 1
    12    6   33 1
    13    7   13 1
    14    7    8 am
    15    8    9 2
    16    8   10 1
    17   10   11 2
    18   10   34 1
    19   11   12 1
    20   11   15 1
    21   12   13 2
    22   13   14 1
    23   15   16 1
    24   15   35 1
    25   15   36 1
    26   16   17 1
    27   17   21 1
    28   17   18 2
    29   18   19 1
    30   19   20 2
    31   20   21 1
    32   20   23 1
    33   21   22 1
    34   22   37 1
    35   22   38 1
    36   23   28 ar
    37   23   24 ar
    38   24   25 ar
    39   24   39 1
    40   25   26 ar
    41   25   40 1
    42   26   27 ar
    43   26   29 1
    44   27   28 ar
    45   27   41 1
    46   28   42 1
@<TRIPOS>MOLECULE
ZINC39154647
   59    63     0     0     0
SMALL
USER_CHARGES

@<TRIPOS>ATOM
      1 C1         -0.0187    1.5258    0.0104 C.3       1 <0>        -0.1541
      2 C2          0.0021   -0.0041    0.0020 C.3       1 <0>        -0.0935
      3 C3          0.7182   -0.4975   -1.2568 C.3       1 <0>        -0.1477
      4 C4          0.7421   -0.5109    1.2415 C.3       1 <0>        -0.1151
      5 C5         -0.0416   -0.1236    2.4973 C.3       1 <0>         0.0573
      6 O1          0.6496   -0.5970    3.6550 O.3       1 <0>        -0.3152
      7 C6          0.0831   -0.3345    4.8620 C.ar      1 <0>         0.1391
      8 C7         -1.1163    0.3594    4.9305 C.ar      1 <0>        -0.2144
      9 C8         -1.6904    0.6245    6.1588 C.ar      1 <0>        -0.0457
     10 C9         -1.0703    0.1995    7.3192 C.ar      1 <0>        -0.1217
     11 C10         0.1253   -0.4918    7.2536 C.ar      1 <0>        -0.0473
     12 C11         0.7003   -0.7649    6.0276 C.ar      1 <0>        -0.1580
     13 C12        -1.6985    0.4906    8.6577 C.3       1 <0>         0.2537
     14 H1         -2.3793   -0.3126    8.9399 H         1 <0>         0.1064
     15 N1         -2.4094    1.7750    8.6212 N.2       1 <0>        -0.5140
     16 C13        -1.8531    2.5662    9.4996 C.2       1 <0>         0.4067
     17 C14        -2.1984    3.9726    9.8505 C.2       1 <0>        -0.1487
     18 C15        -3.2514    4.8142    9.2911 C.2       1 <0>        -0.0279
     19 C16        -3.3615    6.0691    9.7835 C.2       1 <0>        -0.2271
     20 S1         -2.0841    6.1897   11.0027 S.3       1 <0>         0.1877
     21 C17        -1.4118    4.5547   10.8399 C.2       1 <0>         0.0965
     22 N2         -0.3898    3.8728   11.4447 N.am      1 <0>        -0.5947
     23 C18        -0.1041    2.6045   11.1023 C.2       1 <0>         0.7311
     24 O2          0.8118    2.0313   11.6602 O.2       1 <0>        -0.5219
     25 N3         -0.8097    1.9516   10.1546 N.am      1 <0>        -0.4272
     26 N4         -0.6574    0.6672    9.6867 N.3       1 <0>        -0.4196
     27 C19        -4.3584    7.1028    9.3622 C.3       1 <0>         0.1480
     28 O3         -4.9660    6.6567    8.1392 O.3       1 <0>        -0.3571
     29 C20        -5.4124    5.2989    8.1867 C.3       1 <0>         0.1088
     30 C21        -4.2119    4.3479    8.2000 C.3       1 <0>        -0.0777
     31 C22        -6.2443    5.0826    9.4524 C.3       1 <0>        -0.1822
     32 C23        -6.2773    5.0063    6.9590 C.3       1 <0>        -0.1391
     33 H2          1.0039    1.9031    0.0027 H         1 <0>         0.0575
     34 H3         -0.5459    1.8868   -0.8726 H         1 <0>         0.0581
     35 H4         -0.5289    1.8773    0.9072 H         1 <0>         0.0549
     36 H5         -1.0205   -0.3814    0.0098 H         1 <0>         0.0728
     37 H6          1.7408   -0.1202   -1.2645 H         1 <0>         0.0567
     38 H7          0.7330   -1.5874   -1.2628 H         1 <0>         0.0565
     39 H8          0.1910   -0.1364   -2.1398 H         1 <0>         0.0582
     40 H9          0.8346   -1.5958    1.1912 H         1 <0>         0.0746
     41 H10         1.7350   -0.0630    1.2804 H         1 <0>         0.0746
     42 H11        -0.1341    0.9613    2.5476 H         1 <0>         0.0647
     43 H12        -1.0345   -0.5716    2.4584 H         1 <0>         0.0620
     44 H13        -1.6007    0.6922    4.0244 H         1 <0>         0.1283
     45 H14        -2.6241    1.1647    6.2126 H         1 <0>         0.1329
     46 H15         0.6078   -0.8225    8.1615 H         1 <0>         0.1345
     47 H16         1.6320   -1.3088    5.9767 H         1 <0>         0.1321
     48 H17        -0.7663   -0.0057   10.4306 H         1 <0>         0.3576
     49 H18        -5.1207    7.2158   10.1331 H         1 <0>         0.0807
     50 H19        -3.8549    8.0555    9.1979 H         1 <0>         0.1135
     51 H20        -3.7108    4.3742    7.2324 H         1 <0>         0.0923
     52 H21        -4.5478    3.3333    8.4140 H         1 <0>         0.0996
     53 H22        -7.1065    5.7494    9.4389 H         1 <0>         0.0678
     54 H23        -6.5856    4.0481    9.4905 H         1 <0>         0.0700
     55 H24        -5.6335    5.2963   10.3295 H         1 <0>         0.0629
     56 H25        -5.6901    5.1655    6.0546 H         1 <0>         0.0664
     57 H26        -6.6187    3.9717    6.9932 H         1 <0>         0.0745
     58 H27        -7.1394    5.6734    6.9545 H         1 <0>         0.0673
     59 H28         0.1366    4.3120   12.1309 H         1 <0>         0.4435
@<TRIPOS>BOND
     1    1    2 1
     2    1   33 1
     3    1   34 1
     4    1   35 1
     5    2    3 1
     6    2    4 1
     7    2   36 1
     8    3   37 1
     9    3   38 1
    10    3   39 1
    11    4    5 1
    12    4   40 1
    13    4   41 1
    14    5    6 1
    15    5   42 1
    16    5   43 1
    17    6    7 1
    18    7   12 ar
    19    7    8 ar
    20    8    9 ar
    21    8   44 1
    22    9   10 ar
    23    9   45 1
    24   10   11 ar
    25   10   13 1
    26   11   12 ar
    27   11   46 1
    28   12   47 1
    29   13   14 1
    30   13   26 1
    31   13   15 1
    32   15   16 2
    33   16   25 1
    34   16   17 1
    35   17   21 2
    36   17   18 1
    37   18   30 1
    38   18   19 2
    39   19   20 1
    40   19   27 1
    41   20   21 1
    42   21   22 1
    43   22   23 am
    44   22   59 1
    45   23   24 2
    46   23   25 am
    47   25   26 1
    48   26   48 1
    49   27   28 1
    50   27   49 1
    51   27   50 1
    52   28   29 1
    53   29   30 1
    54   29   31 1
    55   29   32 1
    56   30   51 1
    57   30   52 1
    58   31   53 1
    59   31   54 1
    60   31   55 1
    61   32   56 1
    62   32   57 1
    63   32   58 1
@<TRIPOS>MOLECULE
ZINC65364657
   60    63     0     0     0
SMALL
USER_CHARGES

@<TRIPOS>ATOM
      1 C1         -1.4445    1.2382    0.1417 C.3       1 <0>        -0.1131
      2 C2         -1.4379   -0.2632    0.2710 C.ar      1 <0>        -0.1042
      3 C3         -0.3098   -0.9102    0.7411 C.ar      1 <0>        -0.1018
      4 C4         -0.3005   -2.2860    0.8612 C.ar      1 <0>        -0.1056
      5 C5         -1.4261   -3.0199    0.5093 C.ar      1 <0>         0.1616
      6 C6         -2.5576   -2.3669    0.0375 C.ar      1 <0>        -0.1445
      7 C7         -2.5620   -0.9905   -0.0752 C.ar      1 <0>        -0.1005
      8 N1         -1.4200   -4.4129    0.6293 N.pl3     1 <0>        -0.6396
      9 C8         -0.7387   -5.0150    1.6743 C.ar      1 <0>         0.6024
     10 N2         -0.2062   -4.2559    2.6208 N.ar      1 <0>        -0.5887
     11 C9          0.4522   -4.7951    3.6361 C.ar      1 <0>         0.2403
     12 C10         0.5824   -6.1687    3.7040 C.ar      1 <0>        -0.3411
     13 C11         0.0107   -6.9428    2.6921 C.ar      1 <0>         0.4805
     14 N3         -0.6405   -6.3355    1.7053 N.ar      1 <0>        -0.6210
     15 N4          0.1163   -8.3239    2.7191 N.pl3     1 <0>        -0.5972
     16 C12        -0.2765   -9.1270    1.5527 C.3       1 <0>         0.1099
     17 C13         0.9091  -10.0099    1.1438 C.3       1 <0>         0.1146
     18 N5          1.4164  -10.6980    2.3391 N.am      1 <0>        -0.6248
     19 C14         1.8092   -9.8949    3.5056 C.3       1 <0>         0.0944
     20 C15         0.6289   -9.0117    3.9124 C.3       1 <0>         0.1078
     21 C16         1.5191  -12.0416    2.3654 C.2       1 <0>         0.7098
     22 O1          1.1015  -12.7016    1.4336 O.2       1 <0>        -0.5639
     23 N6          2.0849  -12.6536    3.4246 N.am      1 <0>        -0.6858
     24 C17         2.3180  -14.0332    3.3933 C.ar      1 <0>         0.1848
     25 C18         2.6463  -14.6560    2.1953 C.ar      1 <0>        -0.1234
     26 C19         2.8767  -16.0179    2.1630 C.ar      1 <0>        -0.0780
     27 C20         2.7811  -16.7654    3.3208 C.ar      1 <0>        -0.1497
     28 C21         2.4531  -16.1488    4.5226 C.ar      1 <0>        -0.0626
     29 C22         2.2271  -14.7791    4.5590 C.ar      1 <0>        -0.1295
     30 S1          2.3308  -17.1027    5.9990 S.3       1 <0>        -0.1167
     31 C23         2.7095  -18.7934    5.4618 C.3       1 <0>        -0.1436
     32 C24         1.0531   -3.9193    4.7052 C.3       1 <0>        -0.1058
     33 H1         -1.7954    1.6816    1.0736 H         1 <0>         0.0687
     34 H2         -0.4345    1.5891   -0.0699 H         1 <0>         0.0651
     35 H3         -2.1085    1.5299   -0.6721 H         1 <0>         0.0648
     36 H4          0.5652   -0.3391    1.0142 H         1 <0>         0.1230
     37 H5          0.5810   -2.7907    1.2280 H         1 <0>         0.1311
     38 H6         -3.4343   -2.9346   -0.2373 H         1 <0>         0.1232
     39 H7         -3.4429   -0.4818   -0.4381 H         1 <0>         0.1243
     40 H8         -1.8928   -4.9576   -0.0193 H         1 <0>         0.4216
     41 H9          1.1146   -6.6332    4.5209 H         1 <0>         0.1402
     42 H10        -1.1286   -9.7556    1.8115 H         1 <0>         0.0709
     43 H11        -0.5431   -8.4671    0.7271 H         1 <0>         0.1096
     44 H12         0.5811  -10.7457    0.4096 H         1 <0>         0.1094
     45 H13         1.6970   -9.3895    0.7168 H         1 <0>         0.0737
     46 H14         2.0758  -10.5548    4.3311 H         1 <0>         0.0898
     47 H15         2.6613   -9.2663    3.2467 H         1 <0>         0.0823
     48 H16         0.9602   -8.2756    4.6449 H         1 <0>         0.1034
     49 H17        -0.1572   -9.6319    4.3432 H         1 <0>         0.0771
     50 H18         2.3304  -12.1379    4.2086 H         1 <0>         0.4060
     51 H19         2.7212  -14.0747    1.2881 H         1 <0>         0.1374
     52 H20         3.1317  -16.4992    1.2304 H         1 <0>         0.1304
     53 H21         2.9611  -17.8299    3.2921 H         1 <0>         0.1249
     54 H22         1.9764  -14.2965    5.4921 H         1 <0>         0.1301
     55 H23         2.6584  -19.4666    6.3175 H         1 <0>         0.1105
     56 H24         1.9855  -19.1064    4.7095 H         1 <0>         0.0853
     57 H25         3.7123  -18.8231    5.0355 H         1 <0>         0.0853
     58 H26         0.3237   -3.7642    5.5002 H         1 <0>         0.0853
     59 H27         1.9398   -4.4029    5.1150 H         1 <0>         0.0797
     60 H28         1.3303   -2.9576    4.2737 H         1 <0>         0.0820
@<TRIPOS>BOND
     1    1    2 1
     2    1   33 1
     3    1   34 1
     4    1   35 1
     5    2    7 ar
     6    2    3 ar
     7    3    4 ar
     8    3   36 1
     9    4    5 ar
    10    4   37 1
    11    5    6 ar
    12    5    8 1
    13    6    7 ar
    14    6   38 1
    15    7   39 1
    16    8    9 1
    17    8   40 1
    18    9   14 ar
    19    9   10 ar
    20   10   11 ar
    21   11   12 ar
    22   11   32 1
    23   12   13 ar
    24   12   41 1
    25   13   14 ar
    26   13   15 1
    27   15   20 1
    28   15   16 1
    29   16   17 1
    30   16   42 1
    31   16   43 1
    32   17   18 1
    33   17   44 1
    34   17   45 1
    35   18   19 1
    36   18   21 am
    37   19   20 1
    38   19   46 1
    39   19   47 1
    40   20   48 1
    41   20   49 1
    42   21   22 2
    43   21   23 am
    44   23   24 1
    45   23   50 1
    46   24   29 ar
    47   24   25 ar
    48   25   26 ar
    49   25   51 1
    50   26   27 ar
    51   26   52 1
    52   27   28 ar
    53   27   53 1
    54   28   29 ar
    55   28   30 1
    56   29   54 1
    57   30   31 1
    58   31   55 1
    59   31   56 1
    60   31   57 1
    61   32   58 1
    62   32   59 1
    63   32   60 1
@<TRIPOS>MOLECULE
ZINC08283369
   51    54     0     0     0
SMALL
USER_CHARGES
2-[[4-amino-5-(p-tolyl)-1,2,4-triazol-3-yl]sulfanyl]-1-(2-methylindolin-1-yl)-propan-1-one
@<TRIPOS>ATOM
      1 C1        -12.1113   -0.8560   -4.3262 C.3       1 <0>        -0.1212
      2 C2        -10.7476   -0.6280   -3.7267 C.ar      1 <0>        -0.0661
      3 C3        -10.1665   -1.6098   -2.9439 C.ar      1 <0>        -0.1128
      4 C4         -8.9184   -1.4074   -2.3921 C.ar      1 <0>        -0.0655
      5 C5         -8.2418   -0.2090   -2.6250 C.ar      1 <0>        -0.0280
      6 C6         -8.8362    0.7796   -3.4109 C.ar      1 <0>        -0.1173
      7 C7        -10.0821    0.5620   -3.9619 C.ar      1 <0>        -0.1114
      8 C8         -6.9040    0.0146   -2.0369 C.2       1 <0>         0.1997
      9 N1         -6.1177   -0.8989   -1.5169 N.2       1 <0>        -0.2514
     10 N2         -5.0305   -0.3557   -1.0993 N.2       1 <0>        -0.2804
     11 C9         -5.0561    0.9386   -1.3272 C.2       1 <0>         0.1795
     12 N3         -6.2507    1.2204   -1.9260 N.pl3     1 <0>        -0.3014
     13 N4         -6.7017    2.4440   -2.3326 N.3       1 <0>        -0.5865
     14 S1         -3.7886    2.0955   -0.9276 S.3       1 <0>         0.0923
     15 C10        -2.5743    0.9839   -0.1753 C.3       1 <0>        -0.1207
     16 H1         -2.3390    0.1785   -0.8710 H         1 <0>         0.1306
     17 C11        -3.1524    0.3932    1.1122 C.3       1 <0>        -0.1436
     18 C12        -1.3190    1.7539    0.1447 C.2       1 <0>         0.5465
     19 O1         -1.3543    2.6670    0.9423 O.2       1 <0>        -0.4949
     20 N5         -0.1570    1.4279   -0.4554 N.am      1 <0>        -0.5430
     21 C13         1.0549    2.1018   -0.2752 C.ar      1 <0>         0.1419
     22 C14         1.3395    3.2140    0.5195 C.ar      1 <0>        -0.1287
     23 C15         2.6164    3.7317    0.5590 C.ar      1 <0>        -0.0939
     24 C16         3.6255    3.1533   -0.1891 C.ar      1 <0>        -0.1369
     25 C17         3.3514    2.0523   -0.9786 C.ar      1 <0>        -0.0800
     26 C18         2.0729    1.5296   -1.0209 C.ar      1 <0>        -0.1337
     27 C19         1.5075    0.3531   -1.7844 C.3       1 <0>        -0.0814
     28 C20         0.0228    0.3115   -1.3873 C.3       1 <0>         0.1221
     29 H2         -0.2107   -0.6329   -0.8957 H         1 <0>         0.0972
     30 C21        -0.8620    0.5020   -2.6209 C.3       1 <0>        -0.1788
     31 H3        -12.8760   -0.5023   -3.6347 H         1 <0>         0.0768
     32 H4        -12.1909   -0.3099   -5.2662 H         1 <0>         0.0705
     33 H5        -12.2534   -1.9207   -4.5115 H         1 <0>         0.0719
     34 H6        -10.6913   -2.5364   -2.7642 H         1 <0>         0.1348
     35 H7         -8.4657   -2.1747   -1.7815 H         1 <0>         0.1403
     36 H8         -8.3198    1.7108   -3.5912 H         1 <0>         0.1147
     37 H9        -10.5409    1.3240   -4.5744 H         1 <0>         0.1323
     38 H10        -6.4298    2.6311   -3.2860 H         1 <0>         0.3689
     39 H11        -7.7020    2.5160   -2.2211 H         1 <0>         0.3817
     40 H12        -2.4211   -0.2762    1.5652 H         1 <0>         0.0720
     41 H13        -3.3877    1.1987    1.8079 H         1 <0>         0.0781
     42 H14        -4.0604   -0.1637    0.8807 H         1 <0>         0.0906
     43 H15         0.5559    3.6704    1.1061 H         1 <0>         0.1389
     44 H16         2.8294    4.5922    1.1759 H         1 <0>         0.1293
     45 H17         4.6253    3.5605   -0.1563 H         1 <0>         0.1280
     46 H18         4.1384    1.5991   -1.5632 H         1 <0>         0.1267
     47 H19         1.6097    0.5120   -2.8579 H         1 <0>         0.0961
     48 H20         2.0068   -0.5688   -1.4864 H         1 <0>         0.0945
     49 H21        -0.4342    1.2752   -3.2590 H         1 <0>         0.0714
     50 H22        -0.9201   -0.4351   -3.1746 H         1 <0>         0.0814
     51 H23        -1.8622    0.8016   -2.3078 H         1 <0>         0.0692
@<TRIPOS>BOND
     1    1    2 1
     2    1   31 1
     3    1   32 1
     4    1   33 1
     5    2    7 ar
     6    2    3 ar
     7    3    4 ar
     8    3   34 1
     9    4    5 ar
    10    4   35 1
    11    5    6 ar
    12    5    8 1
    13    6    7 ar
    14    6   36 1
    15    7   37 1
    16    8   12 1
    17    8    9 2
    18    9   10 1
    19   10   11 2
    20   11   12 1
    21   11   14 1
    22   12   13 1
    23   13   38 1
    24   13   39 1
    25   14   15 1
    26   15   16 1
    27   15   17 1
    28   15   18 1
    29   17   40 1
    30   17   41 1
    31   17   42 1
    32   18   19 2
    33   18   20 am
    34   20   28 1
    35   20   21 1
    36   21   26 ar
    37   21   22 ar
    38   22   23 ar
    39   22   43 1
    40   23   24 ar
    41   23   44 1
    42   24   25 ar
    43   24   45 1
    44   25   26 ar
    45   25   46 1
    46   26   27 1
    47   27   28 1
    48   27   47 1
    49   27   48 1
    50   28   29 1
    51   28   30 1
    52   30   49 1
    53   30   50 1
    54   30   51 1
@<TRIPOS>MOLECULE
ZINC20709841
   49    52     0     0     0
SMALL
USER_CHARGES
2-[(3aR,4S,9bS)-8-isopropoxy-3a,4,5,9b-tetrahydro-3H-cyclopenta[c]quinolin-4-yl]-4-nitro-phenol
@<TRIPOS>ATOM
      1 C1          4.4818   -3.1071    0.0314 C.3       1 <0>        -0.1818
      2 C2          4.8481   -1.9413   -0.8894 C.3       1 <0>         0.0793
      3 C3          5.5148   -2.4819   -2.1559 C.3       1 <0>        -0.1502
      4 O1          3.6641   -1.2238   -1.2435 O.3       1 <0>        -0.3172
      5 C4          3.2395   -0.2666   -0.3756 C.ar      1 <0>         0.0984
      6 C5          3.8821   -0.1034    0.8429 C.ar      1 <0>        -0.1637
      7 C6          3.4454    0.8691    1.7200 C.ar      1 <0>        -0.1454
      8 C7          2.3684    1.6786    1.3828 C.ar      1 <0>         0.1740
      9 C8          1.7232    1.5230    0.1660 C.ar      1 <0>        -0.1129
     10 C9          2.1672    0.5418   -0.7104 C.ar      1 <0>        -0.1101
     11 C10         0.5625    2.3746   -0.2396 C.3       1 <0>        -0.0084
     12 H1          0.8130    2.6596   -1.2721 H         1 <0>         0.0983
     13 C11        -0.7392    1.6151   -0.1450 C.2       1 <0>        -0.1611
     14 C12        -1.7011    2.4113    0.2535 C.2       1 <0>        -0.1761
     15 C13        -1.1699    3.8130    0.4826 C.3       1 <0>        -0.0917
     16 C14         0.3588    3.5936    0.6808 C.3       1 <0>        -0.0838
     17 H2          1.0278    4.4420    0.4744 H         1 <0>         0.1054
     18 C15         0.5759    3.1881    2.1412 C.3       1 <0>         0.2128
     19 H3          0.4737    4.0503    2.8166 H         1 <0>         0.1067
     20 N1          1.9347    2.6562    2.2893 N.pl3     1 <0>        -0.7638
     21 C16        -0.4253    2.1291    2.5249 C.ar      1 <0>        -0.1290
     22 C17        -0.1682    0.8008    2.2450 C.ar      1 <0>         0.0014
     23 C18        -1.0839   -0.1717    2.6015 C.ar      1 <0>        -0.0911
     24 C19        -2.2642    0.1833    3.2285 C.ar      1 <0>        -0.0204
     25 C20        -2.5283    1.5104    3.5058 C.ar      1 <0>        -0.2151
     26 C21        -1.6083    2.4878    3.1542 C.ar      1 <0>         0.2175
     27 O2         -1.8660    3.7942    3.4255 O.3       1 <0>        -0.4935
     28 N2         -0.8035   -1.5945    2.3055 N.pl3     1 <0>         0.0355
     29 O3         -1.6120   -2.4515    2.6142 O.2       1 <0>        -0.1752
     30 O4          0.2358   -1.9083    1.7533 O.3       1 <0>        -0.1583
     31 H4          4.0025   -2.7185    0.9420 H         1 <0>         0.0658
     32 H5          5.3932   -3.6594    0.3039 H         1 <0>         0.0700
     33 H6          3.7864   -3.7815   -0.4898 H         1 <0>         0.0702
     34 H7          5.4963   -1.2158   -0.3760 H         1 <0>         0.0702
     35 H8          5.7782   -1.6438   -2.8179 H         1 <0>         0.0640
     36 H9          4.8194   -3.1563   -2.6770 H         1 <0>         0.0684
     37 H10         6.4262   -3.0342   -1.8833 H         1 <0>         0.0766
     38 H11         4.7196   -0.7335    1.1038 H         1 <0>         0.1306
     39 H12         3.9419    1.0005    2.6701 H         1 <0>         0.1235
     40 H13         1.6721    0.4087   -1.6610 H         1 <0>         0.1272
     41 H14        -0.9529    0.5568   -0.3555 H         1 <0>         0.1213
     42 H15        -2.7225    2.0217    0.3754 H         1 <0>         0.1226
     43 H16        -1.3931    4.4377   -0.3949 H         1 <0>         0.0800
     44 H17        -1.6498    4.2461    1.3726 H         1 <0>         0.0883
     45 H18         2.5848    3.0252    3.0963 H         1 <0>         0.4255
     46 H19         0.7509    0.5215    1.7514 H         1 <0>         0.1719
     47 H20        -2.9800   -0.5778    3.5019 H         1 <0>         0.1509
     48 H21        -3.4499    1.7870    3.9961 H         1 <0>         0.1483
     49 H22        -2.8044    4.0776    3.9246 H         1 <0>         0.4441
@<TRIPOS>BOND
     1    1    2 1
     2    1   31 1
     3    1   32 1
     4    1   33 1
     5    2    3 1
     6    2    4 1
     7    2   34 1
     8    3   35 1
     9    3   36 1
    10    3   37 1
    11    4    5 1
    12    5   10 ar
    13    5    6 ar
    14    6    7 ar
    15    6   38 1
    16    7    8 ar
    17    7   39 1
    18    8   20 1
    19    8    9 ar
    20    9   10 ar
    21    9   11 1
    22   10   40 1
    23   11   12 1
    24   11   16 1
    25   11   13 1
    26   13   14 2
    27   13   41 1
    28   14   15 1
    29   14   42 1
    30   15   16 1
    31   15   43 1
    32   15   44 1
    33   16   17 1
    34   16   18 1
    35   18   19 1
    36   18   20 1
    37   18   21 1
    38   20   45 1
    39   21   26 ar
    40   21   22 ar
    41   22   23 ar
    42   22   46 1
    43   23   24 ar
    44   23   28 1
    45   24   25 ar
    46   24   47 1
    47   25   26 ar
    48   25   48 1
    49   26   27 1
    50   27   49 1
    51   28   29 2
    52   28   30 1
@<TRIPOS>MOLECULE
ZINC38659062
   47    50     0     0     0
SMALL
USER_CHARGES

@<TRIPOS>ATOM
      1 C1          3.6456   -0.7702   -1.2788 C.3       1 <0>        -0.1173
      2 C2          2.3967   -1.4913   -0.8414 C.ar      1 <0>        -0.0957
      3 C3          1.2732   -1.4784   -1.6494 C.ar      1 <0>        -0.0807
      4 C4          0.1225   -2.1378   -1.2556 C.ar      1 <0>        -0.1273
      5 C5          0.0877   -2.8128   -0.0529 C.ar      1 <0>        -0.0668
      6 C6          1.2175   -2.8298    0.7672 C.ar      1 <0>        -0.1226
      7 C7          2.3777   -2.1672    0.3606 C.ar      1 <0>        -0.0536
      8 C8          1.1876   -3.5501    2.0565 C.2       1 <0>         0.5104
      9 O1          2.1722   -3.5632    2.7679 O.2       1 <0>        -0.4804
     10 O2          0.0683   -4.1925    2.4434 O.3       1 <0>        -0.2889
     11 C9          0.1166   -4.9264    3.5863 C.ar      1 <0>         0.1207
     12 C10         0.0708   -4.2939    4.8209 C.ar      1 <0>        -0.1250
     13 C11         0.1200   -5.0409    5.9811 C.ar      1 <0>        -0.0578
     14 C12         0.2150   -6.4200    5.9191 C.ar      1 <0>        -0.1234
     15 C13         0.2611   -7.0568    4.6889 C.ar      1 <0>         0.1396
     16 C14         0.2058   -6.3073    3.5208 C.ar      1 <0>        -0.1242
     17 O3          0.3545   -8.4071    4.6077 O.3       1 <0>        -0.2396
     18 C15         0.0218   -9.1666    5.6646 C.2       1 <0>         0.4533
     19 C16        -0.0380   -8.6618    6.9196 C.2       1 <0>        -0.2888
     20 C17         0.2680   -7.2165    7.1958 C.3       1 <0>         0.1302
     21 H1         -0.4644   -6.8204    7.8992 H         1 <0>         0.1231
     22 C18         1.6450   -7.1040    7.7976 C.2       1 <0>        -0.0092
     23 C19         1.9337   -6.6085    9.0144 C.2       1 <0>        -0.1974
     24 C20         3.3365   -6.6924    9.1686 C.2       1 <0>        -0.2121
     25 C21         3.8213   -7.2341    8.0368 C.2       1 <0>        -0.0108
     26 O4          2.7916   -7.4867    7.2124 O.3       1 <0>        -0.1649
     27 C22         5.2730   -7.5152    7.7457 C.3       1 <0>        -0.0751
     28 C23        -0.4002   -9.5222    8.0054 C.1       1 <0>         0.2728
     29 N1         -0.6876  -10.2048    8.8668 N.1       1 <0>        -0.4405
     30 N2         -0.2665  -10.4939    5.4663 N.pl3     1 <0>        -0.8266
     31 H2          4.2725   -1.4481   -1.8581 H         1 <0>         0.0752
     32 H3          3.3733    0.0877   -1.8937 H         1 <0>         0.0715
     33 H4          4.1942   -0.4286   -0.4010 H         1 <0>         0.0708
     34 H5          1.2948   -0.9510   -2.5916 H         1 <0>         0.1318
     35 H6         -0.7507   -2.1237   -1.8910 H         1 <0>         0.1349
     36 H7         -0.8114   -3.3265    0.2537 H         1 <0>         0.1400
     37 H8          3.2565   -2.1801    0.9883 H         1 <0>         0.1389
     38 H9         -0.0029   -3.2177    4.8741 H         1 <0>         0.1401
     39 H10         0.0846   -4.5468    6.9409 H         1 <0>         0.1459
     40 H11         0.2369   -6.8011    2.5608 H         1 <0>         0.1491
     41 H12         1.2290   -6.2205    9.7350 H         1 <0>         0.1480
     42 H13         3.9091   -6.3809   10.0297 H         1 <0>         0.1475
     43 H14         5.5227   -8.5215    8.0818 H         1 <0>         0.0804
     44 H15         5.4504   -7.4359    6.6731 H         1 <0>         0.0757
     45 H16         5.8957   -6.7914    8.2715 H         1 <0>         0.0889
     46 H17        -0.2283  -10.8704    4.5732 H         1 <0>         0.4130
     47 H18        -0.5084  -11.0554    6.2194 H         1 <0>         0.4269
@<TRIPOS>BOND
     1    1    2 1
     2    1   31 1
     3    1   32 1
     4    1   33 1
     5    2    7 ar
     6    2    3 ar
     7    3    4 ar
     8    3   34 1
     9    4    5 ar
    10    4   35 1
    11    5    6 ar
    12    5   36 1
    13    6    7 ar
    14    6    8 1
    15    7   37 1
    16    8    9 2
    17    8   10 1
    18   10   11 1
    19   11   16 ar
    20   11   12 ar
    21   12   13 ar
    22   12   38 1
    23   13   14 ar
    24   13   39 1
    25   14   20 1
    26   14   15 ar
    27   15   16 ar
    28   15   17 1
    29   16   40 1
    30   17   18 1
    31   18   19 2
    32   18   30 1
    33   19   20 1
    34   19   28 1
    35   20   21 1
    36   20   22 1
    37   22   26 1
    38   22   23 2
    39   23   24 1
    40   23   41 1
    41   24   25 2
    42   24   42 1
    43   25   26 1
    44   25   27 1
    45   27   43 1
    46   27   44 1
    47   27   45 1
    48   28   29 3
    49   30   46 1
    50   30   47 1
@<TRIPOS>MOLECULE
ZINC04571455
   45    48     0     0     0
SMALL
USER_CHARGES

@<TRIPOS>ATOM
      1 C1         -0.0187    1.5258    0.0104 C.3       1 <0>        -0.1482
      2 C2          0.0021   -0.0041    0.0020 C.3       1 <0>        -0.0853
      3 H1          0.5120   -0.3574   -0.8942 H         1 <0>         0.0749
      4 C3         -1.4336   -0.5367    0.0192 C.3       1 <0>        -0.1164
      5 C4         -1.4325   -2.0452   -0.2369 C.3       1 <0>        -0.0576
      6 C5         -0.4665   -2.7057    0.7365 C.2       1 <0>        -0.0309
      7 C6          0.4829   -1.9854    1.3765 C.2       1 <0>        -0.2184
      8 S1          1.3442   -3.1639    2.3812 S.3       1 <0>         0.2007
      9 C7          0.5028   -4.5345    1.9781 C.2       1 <0>         0.0945
     10 C8         -0.4709   -4.1202    1.0617 C.2       1 <0>        -0.2574
     11 C9         -1.3971   -5.1540    0.5318 C.2       1 <0>         0.4632
     12 N1         -1.0970   -6.4056    0.7505 N.2       1 <0>        -0.6439
     13 C10         0.1144   -6.8596    1.4218 C.3       1 <0>         0.3860
     14 H2         -0.1036   -7.7786    1.9659 H         1 <0>         0.1145
     15 N2          0.6229   -5.8496    2.3676 N.pl3     1 <0>        -0.7049
     16 C11         1.1740   -7.1403    0.3876 C.2       1 <0>        -0.1510
     17 C12         1.6904   -8.3566    0.2809 C.2       1 <0>        -0.0963
     18 C13         2.7297   -8.6319   -0.7334 C.ar      1 <0>        -0.0506
     19 C14         3.1736   -7.6122   -1.5765 C.ar      1 <0>        -0.0649
     20 C15         4.1438   -7.8757   -2.5211 C.ar      1 <0>        -0.1109
     21 C16         4.6766   -9.1477   -2.6337 C.ar      1 <0>        -0.0561
     22 C17         4.2406  -10.1629   -1.8015 C.ar      1 <0>        -0.0447
     23 C18         3.2751   -9.9109   -0.8483 C.ar      1 <0>        -0.0457
     24 N3          4.8153  -11.5208   -1.9295 N.pl3     1 <0>         0.0318
     25 O1          5.6649  -11.7417   -2.7608 O.2       1 <0>        -0.1543
     26 O2          4.4352  -12.4090   -1.2027 O.3       1 <0>        -0.1552
     27 O3         -2.5120   -4.8104   -0.1536 O.3       1 <0>        -0.4529
     28 C19         0.7390   -0.5155    1.2487 C.3       1 <0>        -0.0258
     29 H3          1.0039    1.9031    0.0027 H         1 <0>         0.0571
     30 H4         -0.5459    1.8868   -0.8726 H         1 <0>         0.0587
     31 H5         -0.5289    1.8773    0.9072 H         1 <0>         0.0571
     32 H6         -1.8830   -0.3349    0.9915 H         1 <0>         0.0663
     33 H7         -2.0140   -0.0381   -0.7570 H         1 <0>         0.0706
     34 H8         -2.4356   -2.4428   -0.0829 H         1 <0>         0.0861
     35 H9         -1.1120   -2.2420   -1.2600 H         1 <0>         0.0767
     36 H10         1.0200   -6.0977    3.2171 H         1 <0>         0.4170
     37 H11         1.5127   -6.3506   -0.2666 H         1 <0>         0.1143
     38 H12         1.3517   -9.1463    0.9351 H         1 <0>         0.1326
     39 H13         2.7582   -6.6191   -1.4898 H         1 <0>         0.1417
     40 H14         4.4880   -7.0876   -3.1744 H         1 <0>         0.1506
     41 H15         5.4360   -9.3489   -3.3749 H         1 <0>         0.1556
     42 H16         2.9390  -10.7032   -0.1958 H         1 <0>         0.1566
     43 H17        -3.0393   -5.5647   -0.4504 H         1 <0>         0.4073
     44 H18         1.8087   -0.3347    1.1430 H         1 <0>         0.0778
     45 H19         0.3647   -0.0008    2.1335 H         1 <0>         0.0800
@<TRIPOS>BOND
     1    1    2 1
     2    1   29 1
     3    1   30 1
     4    1   31 1
     5    2    3 1
     6    2   28 1
     7    2    4 1
     8    4    5 1
     9    4   32 1
    10    4   33 1
    11    5    6 1
    12    5   34 1
    13    5   35 1
    14    6   10 1
    15    6    7 2
    16    7    8 1
    17    7   28 1
    18    8    9 1
    19    9   15 1
    20    9   10 2
    21   10   11 1
    22   11   12 2
    23   11   27 1
    24   12   13 1
    25   13   14 1
    26   13   15 1
    27   13   16 1
    28   15   36 1
    29   16   17 2
    30   16   37 1
    31   17   18 1
    32   17   38 1
    33   18   23 ar
    34   18   19 ar
    35   19   20 ar
    36   19   39 1
    37   20   21 ar
    38   20   40 1
    39   21   22 ar
    40   21   41 1
    41   22   23 ar
    42   22   24 1
    43   23   42 1
    44   24   25 2
    45   24   26 1
    46   27   43 1
    47   28   44 1
    48   28   45 1
@<TRIPOS>MOLECULE
ZINC67563189
   58    60     0     0     0
SMALL
USER_CHARGES

@<TRIPOS>ATOM
      1 C1          3.7950   -1.2077    1.0984 C.3       1 <0>        -0.1439
      2 C2          2.7699   -0.9312   -0.0033 C.3       1 <0>         0.0746
      3 H1          3.2866   -0.6249   -0.9129 H         1 <0>         0.0658
      4 C3          1.9587   -2.2025   -0.2787 C.3       1 <0>         0.0986
      5 N1          0.8630   -1.8634   -1.2004 N.am      1 <0>        -0.6290
      6 C4          0.0113   -0.7104   -0.8678 C.3       1 <0>         0.0865
      7 C5          0.9173    0.4882   -0.5637 C.3       1 <0>         0.1254
      8 H2          1.4265    0.8002   -1.4756 H         1 <0>         0.0727
      9 O1          1.8858    0.1104    0.4176 O.3       1 <0>        -0.3651
     10 C6          0.0841    1.6282   -0.0372 C.ar      1 <0>        -0.0904
     11 C7         -0.2234    1.6955    1.3088 C.ar      1 <0>        -0.0881
     12 C8         -0.9877    2.7412    1.7917 C.ar      1 <0>        -0.1215
     13 C9         -1.4441    3.7199    0.9287 C.ar      1 <0>        -0.1125
     14 C10        -1.1358    3.6531   -0.4172 C.ar      1 <0>        -0.1201
     15 C11        -0.3680    2.6097   -0.8994 C.ar      1 <0>        -0.1078
     16 C12         0.6461   -2.5871   -2.3165 C.2       1 <0>         0.7107
     17 O2          1.4183   -3.4739   -2.6257 O.2       1 <0>        -0.5630
     18 N2         -0.4268   -2.3278   -3.0899 N.am      1 <0>        -0.6854
     19 C13        -0.7320   -3.1671   -4.1673 C.ar      1 <0>         0.1838
     20 C14        -0.4706   -4.5291   -4.0836 C.ar      1 <0>        -0.1317
     21 C15        -0.7715   -5.3583   -5.1466 C.ar      1 <0>        -0.0782
     22 C16        -1.3327   -4.8365   -6.2964 C.ar      1 <0>        -0.1341
     23 C17        -1.5965   -3.4757   -6.3864 C.ar      1 <0>         0.1668
     24 C18        -1.3011   -2.6410   -5.3178 C.ar      1 <0>        -0.1757
     25 N3         -2.1644   -2.9479   -7.5512 N.am      1 <0>        -0.6731
     26 C19        -3.0511   -3.6760   -8.2583 C.2       1 <0>         0.5229
     27 O3         -3.4374   -4.7433   -7.8308 O.2       1 <0>        -0.5126
     28 C20        -3.5627   -3.1641   -9.5802 C.3       1 <0>        -0.0842
     29 C21        -4.5489   -4.1737  -10.1709 C.3       1 <0>        -0.1302
     30 C22        -4.2699   -1.8239   -9.3689 C.3       1 <0>        -0.1435
     31 C23        -2.3885   -2.9750  -10.5428 C.3       1 <0>        -0.1429
     32 H3          3.2776   -1.5140    2.0075 H         1 <0>         0.0679
     33 H4          4.4675   -2.0032    0.7775 H         1 <0>         0.0775
     34 H5          4.3701   -0.3029    1.2949 H         1 <0>         0.0700
     35 H6          2.6011   -2.9565   -0.7337 H         1 <0>         0.1073
     36 H7          1.5475   -2.5852    0.6554 H         1 <0>         0.0792
     37 H8         -0.6360   -0.4762   -1.7130 H         1 <0>         0.0863
     38 H9         -0.5960   -0.9428    0.0070 H         1 <0>         0.0856
     39 H10         0.1331    0.9309    1.9830 H         1 <0>         0.1287
     40 H11        -1.2286    2.7934    2.8432 H         1 <0>         0.1248
     41 H12        -2.0418    4.5365    1.3059 H         1 <0>         0.1238
     42 H13        -1.4927    4.4176   -1.0915 H         1 <0>         0.1252
     43 H14        -0.1240    2.5595   -1.9503 H         1 <0>         0.1223
     44 H15        -0.9874   -1.5594   -2.8998 H         1 <0>         0.4050
     45 H16        -0.0313   -4.9399   -3.1865 H         1 <0>         0.1354
     46 H17        -0.5673   -6.4167   -5.0791 H         1 <0>         0.1309
     47 H18        -1.5662   -5.4872   -7.1261 H         1 <0>         0.1337
     48 H19        -1.5093   -1.5834   -5.3837 H         1 <0>         0.1268
     49 H20        -1.9199   -2.0580   -7.8498 H         1 <0>         0.4099
     50 H21        -5.3854   -4.3084   -9.4852 H         1 <0>         0.0638
     51 H22        -4.9189   -3.8034  -11.1270 H         1 <0>         0.0653
     52 H23        -4.0451   -5.1284  -10.3215 H         1 <0>         0.0640
     53 H24        -3.5673   -1.1047   -8.9480 H         1 <0>         0.0590
     54 H25        -4.6399   -1.4536  -10.3250 H         1 <0>         0.0732
     55 H26        -5.1064   -1.9587   -8.6831 H         1 <0>         0.0633
     56 H27        -1.8847   -3.9297  -10.6933 H         1 <0>         0.0634
     57 H28        -2.7585   -2.6047  -11.4988 H         1 <0>         0.0729
     58 H29        -1.6859   -2.2557  -10.1219 H         1 <0>         0.0601
@<TRIPOS>BOND
     1    1    2 1
     2    1   32 1
     3    1   33 1
     4    1   34 1
     5    2    3 1
     6    2    9 1
     7    2    4 1
     8    4    5 1
     9    4   35 1
    10    4   36 1
    11    5    6 1
    12    5   16 am
    13    6    7 1
    14    6   37 1
    15    6   38 1
    16    7    8 1
    17    7    9 1
    18    7   10 1
    19   10   15 ar
    20   10   11 ar
    21   11   12 ar
    22   11   39 1
    23   12   13 ar
    24   12   40 1
    25   13   14 ar
    26   13   41 1
    27   14   15 ar
    28   14   42 1
    29   15   43 1
    30   16   17 2
    31   16   18 am
    32   18   19 1
    33   18   44 1
    34   19   24 ar
    35   19   20 ar
    36   20   21 ar
    37   20   45 1
    38   21   22 ar
    39   21   46 1
    40   22   23 ar
    41   22   47 1
    42   23   24 ar
    43   23   25 1
    44   24   48 1
    45   25   26 am
    46   25   49 1
    47   26   27 2
    48   26   28 1
    49   28   29 1
    50   28   30 1
    51   28   31 1
    52   29   50 1
    53   29   51 1
    54   29   52 1
    55   30   53 1
    56   30   54 1
    57   30   55 1
    58   31   56 1
    59   31   57 1
    60   31   58 1
@<TRIPOS>MOLECULE
ZINC16041552
   67    69     0     0     0
SMALL
USER_CHARGES
methyl (1S,4aS,5S,8aS)-5-[2-[2-[(2-hydroxyethylamino)methyl]-3-furyl]ethyl]-1,4a-dimethyl-6-methylene-decalin-1-carboxylate
@<TRIPOS>ATOM
      1 C1          3.3773    8.0903    2.3986 C.3       1 <0>        -0.1534
      2 C2          2.4143    6.9130    2.6223 C.3       1 <0>        -0.0313
      3 C3          3.1444    5.8357    3.4240 C.3       1 <0>        -0.1147
      4 C4          3.4669    6.3678    4.8224 C.3       1 <0>        -0.1201
      5 C5          2.1611    6.6633    5.5520 C.3       1 <0>        -0.1108
      6 C6          1.3164    7.6932    4.8056 C.3       1 <0>        -0.0247
      7 C7          1.1478    7.3548    3.3350 C.3       1 <0>        -0.0522
      8 H1          0.4325    6.4996    3.3005 H         1 <0>         0.0763
      9 C8          0.4693    8.4976    2.5774 C.3       1 <0>        -0.1149
     10 C9          0.0379    7.9974    1.1921 C.3       1 <0>        -0.0817
     11 C10         1.2323    7.3885    0.4959 C.2       1 <0>        -0.1115
     12 C11         1.5420    7.7414   -0.7302 C.2       1 <0>        -0.1977
     13 C12         2.0626    6.3600    1.2309 C.3       1 <0>        -0.0442
     14 H2          2.9931    6.1972    0.6758 H         1 <0>         0.0809
     15 C13         1.2958    5.0451    1.3182 C.3       1 <0>        -0.1096
     16 C14         1.0844    4.4836   -0.0892 C.3       1 <0>        -0.0646
     17 C15         0.3266    3.1839   -0.0030 C.2       1 <0>        -0.0940
     18 C16         0.8829    1.8844    0.0247 C.2       1 <0>        -0.2171
     19 C17        -0.1460    1.0217    0.1049 C.2       1 <0>         0.0199
     20 O1         -1.2897    1.7255    0.1214 O.3       1 <0>        -0.1666
     21 C18        -1.0090    3.0376    0.0620 C.2       1 <0>        -0.1186
     22 C19        -2.0192    4.1558    0.0611 C.3       1 <0>         0.0944
     23 C20        -3.3947    5.5508   -1.3618 C.3       1 <0>        -0.0021
     24 C21        -3.7749    5.8412   -2.8151 C.3       1 <0>         0.0453
     25 O2         -4.4424    4.7055   -3.3690 O.3       1 <0>        -0.5814
     26 C22         1.8930    9.0915    5.0228 C.3       1 <0>        -0.1549
     27 C23        -0.0637    7.6707    5.4544 C.2       1 <0>         0.4611
     28 O3         -1.0368    7.3916    4.7948 O.2       1 <0>        -0.5122
     29 O4         -0.1972    7.9608    6.7581 O.3       1 <0>        -0.3527
     30 C24        -1.5402    7.9198    7.3084 C.3       1 <0>         0.0339
     31 H3          2.8542    8.8944    1.8810 H         1 <0>         0.0608
     32 H4          3.7383    8.4524    3.3613 H         1 <0>         0.0652
     33 H5          4.2223    7.7590    1.7950 H         1 <0>         0.0567
     34 H6          2.5226    4.9487    3.5370 H         1 <0>         0.0652
     35 H7          4.0722    5.5685    2.9181 H         1 <0>         0.0693
     36 H8          4.0133    5.5904    5.3718 H         1 <0>         0.0686
     37 H9          4.0919    7.2511    4.7710 H         1 <0>         0.0745
     38 H10         1.5869    5.7376    5.6563 H         1 <0>         0.0630
     39 H11         2.3841    7.0427    6.5541 H         1 <0>         0.0803
     40 H12        -0.4275    8.8209    3.1132 H         1 <0>         0.0692
     41 H13         1.1283    9.3511    2.4596 H         1 <0>         0.0716
     42 H14        -0.7500    7.2531    1.3029 H         1 <0>         0.0628
     43 H15        -0.3382    8.8387    0.6069 H         1 <0>         0.0686
     44 H16         2.3950    7.2964   -1.2210 H         1 <0>         0.0990
     45 H17         0.9439    8.4766   -1.2479 H         1 <0>         0.0973
     46 H18         0.3283    5.2193    1.7890 H         1 <0>         0.0656
     47 H19         1.8658    4.3309    1.9125 H         1 <0>         0.0793
     48 H20         2.0520    4.3095   -0.5601 H         1 <0>         0.0881
     49 H21         0.5145    5.1978   -0.6835 H         1 <0>         0.0693
     50 H22         1.9326    1.6328   -0.0112 H         1 <0>         0.1620
     51 H23        -0.0661   -0.0546    0.1447 H         1 <0>         0.2177
     52 H24        -2.8993    3.8508    0.6272 H         1 <0>         0.1461
     53 H25        -1.5809    5.0418    0.5203 H         1 <0>         0.1530
     54 H26        -4.2844    5.2555   -0.8056 H         1 <0>         0.1405
     55 H27        -2.9659    6.4465   -0.9125 H         1 <0>         0.1455
     56 H28        -4.4379    6.7057   -2.8514 H         1 <0>         0.0973
     57 H29        -2.8738    6.0499   -3.3917 H         1 <0>         0.0727
     58 H30        -4.7130    4.8190   -4.2903 H         1 <0>         0.4100
     59 H31         2.9489    9.0952    4.7523 H         1 <0>         0.0791
     60 H32         1.3558    9.8068    4.3999 H         1 <0>         0.0650
     61 H33         1.7855    9.3701    6.0711 H         1 <0>         0.0723
     62 H34        -2.1703    8.6372    6.7827 H         1 <0>         0.0634
     63 H35        -1.9519    6.9178    7.1877 H         1 <0>         0.0625
     64 H36        -1.5067    8.1737    8.3679 H         1 <0>         0.1051
     65 N1         -2.4048    4.4577   -1.3304 N.4       1 <0>        -0.5190
     66 H37        -2.8132    3.6185   -1.7584 H         1 <0>         0.4418
     67 H38        -1.5712    4.7403   -1.8591 H         1 <0>         0.4298
@<TRIPOS>BOND
     1    1    2 1
     2    1   31 1
     3    1   32 1
     4    1   33 1
     5    2    7 1
     6    2   13 1
     7    2    3 1
     8    3    4 1
     9    3   34 1
    10    3   35 1
    11    4    5 1
    12    4   36 1
    13    4   37 1
    14    5    6 1
    15    5   38 1
    16    5   39 1
    17    6    7 1
    18    6   26 1
    19    6   27 1
    20    7    8 1
    21    7    9 1
    22    9   10 1
    23    9   40 1
    24    9   41 1
    25   10   11 1
    26   10   42 1
    27   10   43 1
    28   11   12 2
    29   11   13 1
    30   12   44 1
    31   12   45 1
    32   13   14 1
    33   13   15 1
    34   15   16 1
    35   15   46 1
    36   15   47 1
    37   16   17 1
    38   16   48 1
    39   16   49 1
    40   17   21 2
    41   17   18 1
    42   18   19 2
    43   18   50 1
    44   19   20 1
    45   19   51 1
    46   20   21 1
    47   21   22 1
    48   22   52 1
    49   22   53 1
    50   22   65 1
    51   23   24 1
    52   23   54 1
    53   23   55 1
    54   23   65 1
    55   24   25 1
    56   24   56 1
    57   24   57 1
    58   25   58 1
    59   26   59 1
    60   26   60 1
    61   26   61 1
    62   27   28 2
    63   27   29 1
    64   29   30 1
    65   30   62 1
    66   30   63 1
    67   30   64 1
    68   65   66 1
    69   65   67 1
@<TRIPOS>MOLECULE
ZINC22419232
   71    74     0     0     0
SMALL
USER_CHARGES
1-[(2R)-2-(3,4-dihydro-1H-isoquinolin-2-yl)-2-(4-dimethylaminophenyl)ethyl]-3-(3-phenylpropyl)urea
@<TRIPOS>ATOM
      1 C1         -1.8251    8.0794   -3.1879 C.3       1 <0>         0.0755
      2 N1         -1.7092    7.5078   -1.8440 N.pl3     1 <0>        -0.6231
      3 C2         -1.9167    8.3553   -0.6671 C.3       1 <0>         0.0763
      4 C3         -1.4007    6.1549   -1.6847 C.ar      1 <0>         0.2463
      5 C4         -1.1213    5.3692   -2.7956 C.ar      1 <0>        -0.1905
      6 C5         -0.8172    4.0317   -2.6346 C.ar      1 <0>        -0.0291
      7 C6         -0.7906    3.4745   -1.3692 C.ar      1 <0>        -0.2075
      8 C7         -1.0738    4.2526   -0.2616 C.ar      1 <0>        -0.0807
      9 C8         -1.3732    5.5920   -0.4150 C.ar      1 <0>        -0.1879
     10 C9         -0.4583    2.0147   -1.1974 C.3       1 <0>         0.0912
     11 H1          0.3730    1.7421   -1.8642 H         1 <0>         0.1465
     12 C10        -1.6992    1.1707   -1.4956 C.3       1 <0>         0.1205
     13 N2         -1.3568   -0.2507   -1.4026 N.am      1 <0>        -0.7788
     14 C11        -2.3184   -1.1856   -1.5362 C.2       1 <0>         0.7053
     15 O1         -3.4700   -0.8493   -1.7339 O.2       1 <0>        -0.5767
     16 N3         -2.0034   -2.4933   -1.4506 N.am      1 <0>        -0.7498
     17 C12        -3.0486   -3.5095   -1.5958 C.3       1 <0>         0.1368
     18 C13        -2.4291   -4.9016   -1.4580 C.3       1 <0>        -0.1233
     19 C14        -3.5207   -5.9629   -1.6097 C.3       1 <0>        -0.0790
     20 C15        -2.9104   -7.3341   -1.4740 C.ar      1 <0>        -0.0868
     21 C16        -2.4418   -7.9960   -2.5935 C.ar      1 <0>        -0.1173
     22 C17        -1.8777   -9.2518   -2.4684 C.ar      1 <0>        -0.1169
     23 C18        -1.7912   -9.8499   -1.2251 C.ar      1 <0>        -0.1213
     24 C19        -2.2650   -9.1904   -0.1064 C.ar      1 <0>        -0.1175
     25 C20        -2.8244   -7.9324   -0.2308 C.ar      1 <0>        -0.1179
     26 N4         -0.0209    1.7713    0.1837 N.4       1 <0>        -0.3986
     27 C21         0.9400    0.6585    0.2442 C.3       1 <0>        -0.0070
     28 C22         1.6297    0.6864    1.6084 C.3       1 <0>        -0.1037
     29 C23         0.5984    0.7710    2.7043 C.ar      1 <0>        -0.0930
     30 C24         0.9820    0.4557    3.9991 C.ar      1 <0>        -0.1042
     31 C25         0.0710    0.5285    5.0336 C.ar      1 <0>        -0.0944
     32 C26        -1.2308    0.9175    4.7774 C.ar      1 <0>        -0.1033
     33 C27        -1.6141    1.2293    3.4887 C.ar      1 <0>        -0.0948
     34 C28        -0.7001    1.1555    2.4477 C.ar      1 <0>        -0.1259
     35 C29        -1.1667    1.5012    1.0579 C.3       1 <0>         0.0272
     36 H2         -1.6371    7.2961   -3.9370 H         1 <0>         0.0828
     37 H3         -1.0872    8.8863   -3.3080 H         1 <0>         0.0659
     38 H4         -2.8380    8.4850   -3.3277 H         1 <0>         0.0664
     39 H5         -1.7891    7.7538    0.2450 H         1 <0>         0.0808
     40 H6         -2.9338    8.7735   -0.6912 H         1 <0>         0.0659
     41 H7         -1.1830    9.1749   -0.6715 H         1 <0>         0.0660
     42 H8         -1.1415    5.8038   -3.7841 H         1 <0>         0.1379
     43 H9         -0.6002    3.4201   -3.4979 H         1 <0>         0.1330
     44 H10        -1.0569    3.8132    0.7248 H         1 <0>         0.1183
     45 H11        -1.5899    6.2002    0.4508 H         1 <0>         0.1361
     46 H12        -2.4872    1.4066   -0.7653 H         1 <0>         0.0967
     47 H13        -2.0603    1.3953   -2.5101 H         1 <0>         0.1089
     48 H14        -0.3149   -0.5549   -1.2237 H         1 <0>         0.4057
     49 H15        -0.9616   -2.7975   -1.2717 H         1 <0>         0.4145
     50 H16        -3.8091   -3.3676   -0.8138 H         1 <0>         0.0690
     51 H17        -3.5183   -3.4136   -2.5858 H         1 <0>         0.0702
     52 H18        -1.6685   -5.0435   -2.2399 H         1 <0>         0.0725
     53 H19        -1.9594   -4.9976   -0.4680 H         1 <0>         0.0712
     54 H20        -4.2812   -5.8210   -0.8277 H         1 <0>         0.0774
     55 H21        -3.9904   -5.8669   -2.5997 H         1 <0>         0.0781
     56 H22        -2.5131   -7.5304   -3.5654 H         1 <0>         0.1209
     57 H23        -1.5079   -9.7672   -3.3425 H         1 <0>         0.1232
     58 H24        -1.3538  -10.8326   -1.1279 H         1 <0>         0.1230
     59 H25        -2.1977   -9.6578    0.8649 H         1 <0>         0.1228
     60 H26        -3.1945   -7.4172    0.6432 H         1 <0>         0.1201
     61 H27         0.4063   -0.2943    0.1129 H         1 <0>         0.1268
     62 H28         1.6859    0.7742   -0.5559 H         1 <0>         0.1423
     63 H29         2.2223   -0.2312    1.7385 H         1 <0>         0.1251
     64 H30         2.2926    1.5623    1.6663 H         1 <0>         0.1067
     65 H31         1.9988    0.1519    4.1993 H         1 <0>         0.1341
     66 H32         0.3742    0.2821    6.0404 H         1 <0>         0.1357
     67 H33        -1.9463    0.9775    5.5842 H         1 <0>         0.1364
     68 H34        -2.6314    1.5324    3.2896 H         1 <0>         0.1328
     69 H35        -1.8080    2.3935    1.1080 H         1 <0>         0.1421
     70 H36        -1.7445    0.6565    0.6546 H         1 <0>         0.1473
     71 H37         0.4777    2.6843    0.5414 H         1 <0>         0.4466
@<TRIPOS>BOND
     1    1    2 1
     2    1   36 1
     3    1   37 1
     4    1   38 1
     5    2    3 1
     6    2    4 1
     7    3   39 1
     8    3   40 1
     9    3   41 1
    10    4    9 ar
    11    4    5 ar
    12    5    6 ar
    13    5   42 1
    14    6    7 ar
    15    6   43 1
    16    7    8 ar
    17    7   10 1
    18    8    9 ar
    19    8   44 1
    20    9   45 1
    21   10   11 1
    22   10   12 1
    23   10   26 1
    24   12   13 1
    25   12   46 1
    26   12   47 1
    27   13   14 am
    28   13   48 1
    29   14   15 2
    30   14   16 am
    31   16   17 1
    32   16   49 1
    33   17   18 1
    34   17   50 1
    35   17   51 1
    36   18   19 1
    37   18   52 1
    38   18   53 1
    39   19   20 1
    40   19   54 1
    41   19   55 1
    42   20   25 ar
    43   20   21 ar
    44   21   22 ar
    45   21   56 1
    46   22   23 ar
    47   22   57 1
    48   23   24 ar
    49   23   58 1
    50   24   25 ar
    51   24   59 1
    52   25   60 1
    53   26   35 1
    54   26   27 1
    55   26   71 1
    56   27   28 1
    57   27   61 1
    58   27   62 1
    59   28   29 1
    60   28   63 1
    61   28   64 1
    62   29   34 ar
    63   29   30 ar
    64   30   31 ar
    65   30   65 1
    66   31   32 ar
    67   31   66 1
    68   32   33 ar
    69   32   67 1
    70   33   34 ar
    71   33   68 1
    72   34   35 1
    73   35   69 1
    74   35   70 1
@<TRIPOS>MOLECULE
ZINC36205727
   60    63     0     0     0
SMALL
USER_CHARGES

@<TRIPOS>ATOM
      1 C1          0.0769    2.2745   -0.7046 C.3       1 <0>        -0.1096
      2 C2         -0.3945    0.9883   -1.3327 C.ar      1 <0>        -0.0425
      3 C3         -0.4094    0.8544   -2.7063 C.ar      1 <0>        -0.1201
      4 C4         -0.8418   -0.3255   -3.2841 C.ar      1 <0>        -0.1039
      5 C5         -1.2617   -1.3779   -2.4901 C.ar      1 <0>        -0.1253
      6 C6         -1.2517   -1.2555   -1.1158 C.ar      1 <0>        -0.0974
      7 C7         -0.8109   -0.0706   -0.5274 C.ar      1 <0>        -0.0497
      8 C8         -0.7915    0.0648    0.9486 C.2       1 <0>        -0.0151
      9 C9          0.0362   -0.6998    1.7012 C.2       1 <0>        -0.1646
     10 S1         -0.3121   -0.1687    3.3667 S.3       1 <0>         0.1771
     11 C10        -1.5483    1.0550    3.0175 C.2       1 <0>         0.0967
     12 C11        -1.6583    1.0274    1.6177 C.2       1 <0>        -0.2068
     13 C12        -2.6046    1.9405    1.0520 C.2       1 <0>         0.5537
     14 O1         -2.7746    1.9871   -0.1542 O.2       1 <0>        -0.4811
     15 N1         -3.3041    2.7463    1.8722 N.am      1 <0>        -0.6272
     16 H1         -3.9467    3.3670    1.4945 H         1 <0>         0.4228
     17 C13        -3.1284    2.7072    3.2179 C.2       1 <0>         0.3578
     18 N2         -2.2789    1.8790    3.7642 N.2       1 <0>        -0.4487
     19 C14        -3.9341    3.6286    4.0971 C.3       1 <0>         0.0524
     20 N3         -3.4638    3.5170    5.4843 N.4       1 <0>        -0.3774
     21 C15        -4.5957    3.7053    6.4017 C.3       1 <0>         0.0390
     22 C16        -4.1477    3.4334    7.8146 C.ar      1 <0>        -0.1608
     23 C17        -4.1171    2.1367    8.2926 C.ar      1 <0>        -0.0933
     24 C18        -3.7061    1.8873    9.5887 C.ar      1 <0>        -0.1102
     25 C19        -3.3253    2.9346   10.4066 C.ar      1 <0>        -0.0822
     26 C20        -3.3550    4.2312    9.9283 C.ar      1 <0>        -0.1121
     27 C21        -3.7619    4.4802    8.6309 C.ar      1 <0>        -0.0962
     28 C22        -2.4486    4.5471    5.7415 C.3       1 <0>        -0.0444
     29 C23        -1.0635    3.9947    5.3990 C.3       1 <0>         0.1567
     30 C24        -0.7878    2.7495    6.2443 C.3       1 <0>        -0.1461
     31 C25        -0.0191    5.0412    5.6908 C.2       1 <0>        -0.2097
     32 C26         0.7514    5.4838    4.7282 C.2       1 <0>        -0.1414
     33 O2         -1.0177    3.6494    4.0132 O.3       1 <0>        -0.5338
     34 H2          1.1520    2.2222   -0.5325 H         1 <0>         0.0678
     35 H3         -0.1441    3.1072   -1.3723 H         1 <0>         0.0659
     36 H4         -0.4362    2.4244    0.2453 H         1 <0>         0.0571
     37 H5         -0.0831    1.6726   -3.3311 H         1 <0>         0.1234
     38 H6         -0.8521   -0.4257   -4.3594 H         1 <0>         0.1249
     39 H7         -1.5983   -2.2968   -2.9469 H         1 <0>         0.1256
     40 H8         -1.5800   -2.0775   -0.4970 H         1 <0>         0.1212
     41 H9          0.7383   -1.4511    1.3710 H         1 <0>         0.2035
     42 H10        -3.8131    4.6561    3.7540 H         1 <0>         0.1601
     43 H11        -4.9868    3.3503    4.0468 H         1 <0>         0.1645
     44 H12        -4.9578    4.7306    6.3262 H         1 <0>         0.1407
     45 H13        -5.3973    3.0162    6.1358 H         1 <0>         0.1410
     46 H14        -4.4146    1.3184    7.6536 H         1 <0>         0.1306
     47 H15        -3.6829    0.8743    9.9623 H         1 <0>         0.1369
     48 H16        -3.0049    2.7398   11.4194 H         1 <0>         0.1364
     49 H17        -3.0578    5.0495   10.5675 H         1 <0>         0.1367
     50 H18        -3.7815    5.4929    8.2560 H         1 <0>         0.1323
     51 H19        -2.6537    5.4216    5.1241 H         1 <0>         0.1340
     52 H20        -2.4768    4.8304    6.7937 H         1 <0>         0.1472
     53 H21        -1.5671    2.0088    6.0651 H         1 <0>         0.0676
     54 H22         0.1808    2.3313    5.9700 H         1 <0>         0.0892
     55 H23        -0.7805    3.0212    7.2998 H         1 <0>         0.0822
     56 H24         0.0942    5.4262    6.6934 H         1 <0>         0.1267
     57 H25         0.6381    5.0987    3.7256 H         1 <0>         0.1064
     58 H26         1.4999    6.2338    4.9373 H         1 <0>         0.1129
     59 H27        -1.1839    4.3923    3.4170 H         1 <0>         0.3697
     60 H28        -3.0608    2.6036    5.6304 H         1 <0>         0.4387
@<TRIPOS>BOND
     1    1    2 1
     2    1   34 1
     3    1   35 1
     4    1   36 1
     5    2    7 ar
     6    2    3 ar
     7    3    4 ar
     8    3   37 1
     9    4    5 ar
    10    4   38 1
    11    5    6 ar
    12    5   39 1
    13    6    7 ar
    14    6   40 1
    15    7    8 1
    16    8   12 1
    17    8    9 2
    18    9   10 1
    19    9   41 1
    20   10   11 1
    21   11   18 1
    22   11   12 2
    23   12   13 1
    24   13   14 2
    25   13   15 am
    26   15   16 1
    27   15   17 1
    28   17   18 2
    29   17   19 1
    30   19   20 1
    31   19   42 1
    32   19   43 1
    33   20   21 1
    34   20   28 1
    35   20   60 1
    36   21   22 1
    37   21   44 1
    38   21   45 1
    39   22   27 ar
    40   22   23 ar
    41   23   24 ar
    42   23   46 1
    43   24   25 ar
    44   24   47 1
    45   25   26 ar
    46   25   48 1
    47   26   27 ar
    48   26   49 1
    49   27   50 1
    50   28   29 1
    51   28   51 1
    52   28   52 1
    53   29   30 1
    54   29   31 1
    55   29   33 1
    56   30   53 1
    57   30   54 1
    58   30   55 1
    59   31   32 2
    60   31   56 1
    61   32   57 1
    62   32   58 1
    63   33   59 1
@<TRIPOS>MOLECULE
ZINC39659853
   74    77     0     0     0
SMALL
USER_CHARGES

@<TRIPOS>ATOM
      1 C1         -0.2977    1.2914   -0.0284 C.3       1 <0>        -0.1528
      2 C2         -0.1715   -0.2333   -0.0161 C.3       1 <0>        -0.1183
      3 C3          0.6072   -0.6707    1.2261 C.3       1 <0>        -0.0599
      4 H1          1.5671   -0.1549    1.2535 H         1 <0>         0.1045
      5 C4         -0.1836   -0.3261    2.4618 C.ar      1 <0>        -0.0742
      6 C5         -1.4401   -0.8701    2.6524 C.ar      1 <0>        -0.0863
      7 C6         -2.1654   -0.5540    3.7859 C.ar      1 <0>        -0.1193
      8 C7         -1.6342    0.3057    4.7290 C.ar      1 <0>        -0.1134
      9 C8         -0.3774    0.8489    4.5389 C.ar      1 <0>        -0.1202
     10 C9          0.3498    0.5295    3.4075 C.ar      1 <0>        -0.1111
     11 C10         0.8379   -2.1591    1.1762 C.2       1 <0>         0.5454
     12 O1          0.4030   -2.8700    2.0572 O.2       1 <0>        -0.5167
     13 N1          1.5275   -2.7001    0.1524 N.am      1 <0>        -0.6234
     14 C11         2.1368   -2.0000   -1.0030 C.3       1 <0>         0.1090
     15 C12         3.4827   -2.7234   -1.2322 C.3       1 <0>        -0.1157
     16 H2          4.2888   -2.1960   -0.7221 H         1 <0>         0.1102
     17 C13         3.2863   -4.1209   -0.6211 C.3       1 <0>        -0.0704
     18 C14         1.8535   -4.1294   -0.0690 C.3       1 <0>         0.1077
     19 C15         4.2829   -4.3472    0.5116 C.3       1 <0>        -0.1339
     20 C16         4.1061   -5.7639    1.0653 C.3       1 <0>        -0.0112
     21 N2          4.3242   -6.7413   -0.0080 N.4       1 <0>        -0.5042
     22 C17         3.3040   -6.5767   -1.0503 C.3       1 <0>        -0.0082
     23 C18         3.4466   -5.1943   -1.6933 C.3       1 <0>        -0.1477
     24 C19         3.7770   -2.8295   -2.7064 C.2       1 <0>         0.5196
     25 O2          2.8658   -2.9203   -3.5017 O.2       1 <0>        -0.5202
     26 N3          5.0527   -2.8233   -3.1411 N.am      1 <0>        -0.7236
     27 C20         5.3387   -2.9264   -4.5742 C.3       1 <0>         0.1171
     28 C21         5.3603   -4.4001   -4.9853 C.3       1 <0>        -0.1223
     29 C22         5.2597   -4.5060   -6.5082 C.3       1 <0>        -0.1273
     30 C23         4.1875   -3.5410   -7.0176 C.3       1 <0>        -0.1325
     31 C24         4.8475   -2.4336   -7.8415 C.3       1 <0>        -0.1237
     32 C25         5.5275   -1.4361   -6.9014 C.3       1 <0>        -0.1310
     33 C26         6.8297   -2.0401   -6.3723 C.3       1 <0>        -0.1270
     34 C27         6.7008   -2.2948   -4.8693 C.3       1 <0>        -0.1264
     35 H3          0.6964    1.7381   -0.0468 H         1 <0>         0.0566
     36 H4         -0.8524    1.6030   -0.9134 H         1 <0>         0.0624
     37 H5         -0.8269    1.6194    0.8663 H         1 <0>         0.0625
     38 H6         -1.1657   -0.6800    0.0023 H         1 <0>         0.0723
     39 H7          0.3576   -0.5613   -0.9108 H         1 <0>         0.0721
     40 H8         -1.8551   -1.5418    1.9155 H         1 <0>         0.1157
     41 H9         -3.1474   -0.9785    3.9344 H         1 <0>         0.1230
     42 H10        -2.2012    0.5531    5.6143 H         1 <0>         0.1237
     43 H11         0.0376    1.5208    5.2757 H         1 <0>         0.1240
     44 H12         1.3332    0.9510    3.2608 H         1 <0>         0.1191
     45 H13         1.5003   -2.0937   -1.8828 H         1 <0>         0.1016
     46 H14         2.3055   -0.9498   -0.7650 H         1 <0>         0.0948
     47 H15         1.8123   -4.6790    0.8714 H         1 <0>         0.0883
     48 H16         1.1703   -4.5671   -0.7968 H         1 <0>         0.0835
     49 H17         5.2979   -4.2288    0.1323 H         1 <0>         0.0957
     50 H18         4.1033   -3.6215    1.3048 H         1 <0>         0.1175
     51 H19         4.8281   -5.9344    1.8639 H         1 <0>         0.1396
     52 H20         3.0960   -5.8764    1.4591 H         1 <0>         0.1341
     53 H21         5.2391   -6.5996   -0.4093 H         1 <0>         0.4273
     54 H22         3.4347   -7.3462   -1.8112 H         1 <0>         0.1389
     55 H23         2.3129   -6.6701   -0.6063 H         1 <0>         0.1333
     56 H24         2.6772   -5.0659   -2.4546 H         1 <0>         0.1274
     57 H25         4.4315   -5.1061   -2.1520 H         1 <0>         0.0971
     58 H26         5.7814   -2.7506   -2.5051 H         1 <0>         0.3978
     59 H27         4.5659   -2.4033   -5.1375 H         1 <0>         0.1208
     60 H28         6.2912   -4.8573   -4.6500 H         1 <0>         0.0610
     61 H29         4.5163   -4.9171   -4.5286 H         1 <0>         0.0599
     62 H30         6.2206   -4.2497   -6.9544 H         1 <0>         0.0770
     63 H31         4.9915   -5.5257   -6.7845 H         1 <0>         0.0623
     64 H32         3.4771   -4.0836   -7.6413 H         1 <0>         0.0614
     65 H33         3.6634   -3.0998   -6.1697 H         1 <0>         0.0771
     66 H34         5.5915   -2.8705   -8.5076 H         1 <0>         0.0663
     67 H35         4.0894   -1.9184   -8.4313 H         1 <0>         0.0636
     68 H36         5.7476   -0.5170   -7.4445 H         1 <0>         0.0645
     69 H37         4.8640   -1.2142   -6.0656 H         1 <0>         0.0686
     70 H38         7.0279   -2.9816   -6.8846 H         1 <0>         0.0778
     71 H39         7.6516   -1.3476   -6.5542 H         1 <0>         0.0679
     72 H40         6.7874   -1.3504   -4.3319 H         1 <0>         0.0692
     73 H41         7.4924   -2.9707   -4.5460 H         1 <0>         0.0677
     74 H42         4.2675   -7.6743    0.3720 H         1 <0>         0.4342
@<TRIPOS>BOND
     1    1    2 1
     2    1   35 1
     3    1   36 1
     4    1   37 1
     5    2    3 1
     6    2   38 1
     7    2   39 1
     8    3    4 1
     9    3    5 1
    10    3   11 1
    11    5   10 ar
    12    5    6 ar
    13    6    7 ar
    14    6   40 1
    15    7    8 ar
    16    7   41 1
    17    8    9 ar
    18    8   42 1
    19    9   10 ar
    20    9   43 1
    21   10   44 1
    22   11   12 2
    23   11   13 am
    24   13   18 1
    25   13   14 1
    26   14   15 1
    27   14   45 1
    28   14   46 1
    29   15   16 1
    30   15   17 1
    31   15   24 1
    32   17   23 1
    33   17   18 1
    34   17   19 1
    35   18   47 1
    36   18   48 1
    37   19   20 1
    38   19   49 1
    39   19   50 1
    40   20   21 1
    41   20   51 1
    42   20   52 1
    43   21   22 1
    44   21   53 1
    45   21   74 1
    46   22   23 1
    47   22   54 1
    48   22   55 1
    49   23   56 1
    50   23   57 1
    51   24   25 2
    52   24   26 am
    53   26   27 1
    54   26   58 1
    55   27   34 1
    56   27   28 1
    57   27   59 1
    58   28   29 1
    59   28   60 1
    60   28   61 1
    61   29   30 1
    62   29   62 1
    63   29   63 1
    64   30   31 1
    65   30   64 1
    66   30   65 1
    67   31   32 1
    68   31   66 1
    69   31   67 1
    70   32   33 1
    71   32   68 1
    72   32   69 1
    73   33   34 1
    74   33   70 1
    75   33   71 1
    76   34   72 1
    77   34   73 1
@<TRIPOS>MOLECULE
ZINC66885976
   67    69     0     0     0
SMALL
USER_CHARGES

@<TRIPOS>ATOM
      1 C1         -0.8586    1.5186   -0.3605 C.3       1 <0>        -0.1224
      2 C2         -0.8051    0.0133   -0.3108 C.ar      1 <0>        -0.0744
      3 C3          0.2261   -0.6616   -0.9383 C.ar      1 <0>        -0.1093
      4 C4          0.2780   -2.0408   -0.8946 C.ar      1 <0>        -0.1107
      5 C5         -0.7067   -2.7503   -0.2191 C.ar      1 <0>         0.1065
      6 C6         -1.7404   -2.0697    0.4103 C.ar      1 <0>        -0.0931
      7 C7         -1.7840   -0.6897    0.3669 C.ar      1 <0>        -0.1035
      8 C8         -2.8109   -2.8354    1.1443 C.3       1 <0>        -0.1201
      9 N1         -0.6573   -4.1479   -0.1733 N.am      1 <0>        -0.6382
     10 C9         -0.0988   -4.8361   -1.1887 C.2       1 <0>         0.5009
     11 O1          0.4321   -4.2429   -2.1037 O.2       1 <0>        -0.5038
     12 C10        -0.1340   -6.3427   -1.1871 C.3       1 <0>         0.0069
     13 H1         -1.0445   -6.6843   -0.6948 H         1 <0>         0.1594
     14 C11         1.0850   -6.8805   -0.4349 C.3       1 <0>        -0.1807
     15 N2         -0.1116   -6.8345   -2.5711 N.4       1 <0>        -0.3714
     16 C12        -0.0731   -8.3018   -2.5669 C.3       1 <0>        -0.0066
     17 C13         0.0321   -8.8172   -4.0038 C.3       1 <0>        -0.1542
     18 C14        -1.1842   -8.3392   -4.8021 C.3       1 <0>         0.1355
     19 C15        -1.2563   -6.8109   -4.7375 C.3       1 <0>        -0.1559
     20 C16        -1.3138   -6.3698   -3.2734 C.3       1 <0>        -0.0080
     21 N3         -1.0524   -8.7649   -6.1977 N.am      1 <0>        -0.7342
     22 C17        -2.1519   -8.9219   -6.9611 C.2       1 <0>         0.5193
     23 O2         -3.2505   -8.7107   -6.4927 O.2       1 <0>        -0.5228
     24 C18        -2.0163   -9.3598   -8.3966 C.3       1 <0>        -0.1395
     25 C19        -3.4043   -9.4600   -9.0326 C.3       1 <0>        -0.0713
     26 C20        -4.2016  -10.5698   -8.3445 C.3       1 <0>        -0.1182
     27 C21        -5.5896  -10.6700   -8.9804 C.3       1 <0>        -0.1186
     28 C22        -5.4464  -10.9928  -10.4691 C.3       1 <0>        -0.1228
     29 C23        -4.6490   -9.8830  -11.1572 C.3       1 <0>        -0.1204
     30 C24        -3.2610   -9.7828  -10.5213 C.3       1 <0>        -0.1158
     31 H2         -0.3109    1.9298    0.4874 H         1 <0>         0.0771
     32 H3         -0.4066    1.8677   -1.2889 H         1 <0>         0.0711
     33 H4         -1.8970    1.8469   -0.3160 H         1 <0>         0.0711
     34 H5          0.9914   -0.1094   -1.4634 H         1 <0>         0.1306
     35 H6          1.0831   -2.5674   -1.3854 H         1 <0>         0.1444
     36 H7         -2.5855   -0.1595    0.8597 H         1 <0>         0.1328
     37 H8         -2.5122   -2.9718    2.1837 H         1 <0>         0.0775
     38 H9         -3.7472   -2.2788    1.1054 H         1 <0>         0.0791
     39 H10        -2.9475   -3.8096    0.6747 H         1 <0>         0.0592
     40 H11        -1.0250   -4.6215    0.5892 H         1 <0>         0.4179
     41 H12         1.9955   -6.5389   -0.9272 H         1 <0>         0.0925
     42 H13         1.0684   -6.5156    0.5920 H         1 <0>         0.1121
     43 H14         1.0595   -7.9702   -0.4338 H         1 <0>         0.1012
     44 H15         0.7912   -8.6405   -1.9956 H         1 <0>         0.1424
     45 H16        -0.9840   -8.6873   -2.1088 H         1 <0>         0.1360
     46 H17         0.9428   -8.4324   -4.4627 H         1 <0>         0.0964
     47 H18         0.0587   -9.9069   -3.9986 H         1 <0>         0.1229
     48 H19        -2.0916   -8.7653   -4.3740 H         1 <0>         0.1056
     49 H20        -0.3724   -6.3844   -5.2117 H         1 <0>         0.0926
     50 H21        -2.1507   -6.4664   -5.2568 H         1 <0>         0.1183
     51 H22        -2.1982   -6.7965   -2.8003 H         1 <0>         0.1326
     52 H23        -1.3654   -5.2821   -3.2239 H         1 <0>         0.1337
     53 H24        -0.1737   -8.9338   -6.5722 H         1 <0>         0.4068
     54 H25        -1.4177   -8.6314   -8.9437 H         1 <0>         0.0972
     55 H26        -1.5280  -10.3335   -8.4349 H         1 <0>         0.0977
     56 H27        -3.9270   -8.5108   -8.9153 H         1 <0>         0.0780
     57 H28        -3.6788  -11.5190   -8.4618 H         1 <0>         0.0552
     58 H29        -4.3036  -10.3398   -7.2839 H         1 <0>         0.0760
     59 H30        -6.1576  -11.4606   -8.4902 H         1 <0>         0.0608
     60 H31        -6.1124   -9.7207   -8.8632 H         1 <0>         0.0614
     61 H32        -4.9236  -11.9420  -10.5864 H         1 <0>         0.0613
     62 H33        -6.4352  -11.0642  -10.9222 H         1 <0>         0.0624
     63 H34        -4.5470  -10.1130  -12.2178 H         1 <0>         0.0643
     64 H35        -5.1718   -8.9338  -11.0399 H         1 <0>         0.0621
     65 H36        -2.6930   -8.9922  -11.0115 H         1 <0>         0.0624
     66 H37        -2.7383  -10.7320  -10.6386 H         1 <0>         0.0637
     67 H38         0.7086   -6.4799   -3.0397 H         1 <0>         0.4307
@<TRIPOS>BOND
     1    1    2 1
     2    1   31 1
     3    1   32 1
     4    1   33 1
     5    2    7 ar
     6    2    3 ar
     7    3    4 ar
     8    3   34 1
     9    4    5 ar
    10    4   35 1
    11    5    6 ar
    12    5    9 1
    13    6    7 ar
    14    6    8 1
    15    7   36 1
    16    8   37 1
    17    8   38 1
    18    8   39 1
    19    9   10 am
    20    9   40 1
    21   10   11 2
    22   10   12 1
    23   12   13 1
    24   12   14 1
    25   12   15 1
    26   14   41 1
    27   14   42 1
    28   14   43 1
    29   15   20 1
    30   15   16 1
    31   15   67 1
    32   16   17 1
    33   16   44 1
    34   16   45 1
    35   17   18 1
    36   17   46 1
    37   17   47 1
    38   18   19 1
    39   18   21 1
    40   18   48 1
    41   19   20 1
    42   19   49 1
    43   19   50 1
    44   20   51 1
    45   20   52 1
    46   21   22 am
    47   21   53 1
    48   22   23 2
    49   22   24 1
    50   24   25 1
    51   24   54 1
    52   24   55 1
    53   25   30 1
    54   25   26 1
    55   25   56 1
    56   26   27 1
    57   26   57 1
    58   26   58 1
    59   27   28 1
    60   27   59 1
    61   27   60 1
    62   28   29 1
    63   28   61 1
    64   28   62 1
    65   29   30 1
    66   29   63 1
    67   29   64 1
    68   30   65 1
    69   30   66 1
@<TRIPOS>MOLECULE
ZINC05799001
   54    57     0     0     0
SMALL
USER_CHARGES
7-[(S)-(4-allyloxyphenyl)-[(6-methyl-2-pyridyl)amino]methyl]quinolin-8-ol
@<TRIPOS>ATOM
      1 C1         -3.2991    1.1719    5.1679 C.3       1 <0>        -0.1475
      2 C2         -2.2806    0.6389    4.1934 C.ar      1 <0>         0.1891
      3 C3         -1.5453   -0.4826    4.5216 C.ar      1 <0>        -0.1732
      4 C4         -0.6080   -0.9690    3.6202 C.ar      1 <0>         0.0508
      5 C5         -0.4439   -0.3069    2.4166 C.ar      1 <0>        -0.2024
      6 C6         -1.2190    0.8173    2.1518 C.ar      1 <0>         0.4602
      7 N1         -1.0641    1.4925    0.9467 N.pl3     1 <0>        -0.6956
      8 C7         -0.0137    1.0868    0.0095 C.3       1 <0>         0.2448
      9 H1          0.0639   -0.0003   -0.0009 H         1 <0>         0.1227
     10 C8         -0.3563    1.5793   -1.3729 C.ar      1 <0>        -0.1540
     11 C9         -0.7927    2.8787   -1.5542 C.ar      1 <0>        -0.0655
     12 C10        -1.1020    3.3342   -2.8212 C.ar      1 <0>        -0.2050
     13 C11        -0.9857    2.4831   -3.9106 C.ar      1 <0>         0.1536
     14 C12        -0.5531    1.1781   -3.7253 C.ar      1 <0>        -0.1435
     15 C13        -0.2392    0.7292   -2.4571 C.ar      1 <0>        -0.0577
     16 O1         -1.2956    2.9270   -5.1572 O.3       1 <0>        -0.3047
     17 C14        -1.7342    4.2820   -5.2730 C.3       1 <0>         0.0877
     18 C15        -2.0298    4.5926   -6.7177 C.2       1 <0>        -0.1681
     19 C16        -3.1231    5.2392   -7.0383 C.2       1 <0>        -0.1588
     20 C17         1.3022    1.6802    0.4423 C.ar      1 <0>        -0.1328
     21 C18         1.3120    2.8591    1.1833 C.ar      1 <0>        -0.1024
     22 C19         2.4839    3.4178    1.5943 C.ar      1 <0>        -0.0905
     23 C20         3.7027    2.8061    1.2584 C.ar      1 <0>        -0.0880
     24 C21         4.9343    3.3571    1.6602 C.ar      1 <0>        -0.0607
     25 C22         6.0797    2.7076    1.2977 C.ar      1 <0>        -0.1588
     26 C23         6.0063    1.5336    0.5508 C.ar      1 <0>         0.1397
     27 N2          4.8574    1.0237    0.1790 N.ar      1 <0>        -0.4598
     28 C24         3.7007    1.6098    0.5003 C.ar      1 <0>         0.1047
     29 C25         2.4671    1.0566    0.0970 C.ar      1 <0>         0.1649
     30 O2          2.4381   -0.0898   -0.6311 O.3       1 <0>        -0.4794
     31 H2         -2.8246    1.8972    5.8290 H         1 <0>         0.1115
     32 H3         -4.1083    1.6547    4.6200 H         1 <0>         0.0925
     33 H4         -3.7010    0.3494    5.7596 H         1 <0>         0.1146
     34 H5         -1.6974   -0.9763    5.4700 H         1 <0>         0.1816
     35 H6         -0.0201   -1.8444    3.8534 H         1 <0>         0.1745
     36 H7          0.2760   -0.6584    1.6923 H         1 <0>         0.1807
     37 H8         -1.6516    2.2322    0.7262 H         1 <0>         0.4172
     38 H9         -0.8879    3.5393   -0.7052 H         1 <0>         0.1203
     39 H10        -1.4382    4.3507   -2.9630 H         1 <0>         0.1345
     40 H11        -0.4621    0.5135   -4.5718 H         1 <0>         0.1423
     41 H12         0.0976   -0.2866   -2.3123 H         1 <0>         0.1397
     42 H13        -2.6370    4.4237   -4.6789 H         1 <0>         0.0696
     43 H14        -0.9523    4.9493   -4.9105 H         1 <0>         0.0748
     44 H15        -1.3402    4.2823   -7.4888 H         1 <0>         0.1234
     45 H16        -3.8127    5.5495   -6.2672 H         1 <0>         0.1001
     46 H17        -3.3349    5.4618   -8.0737 H         1 <0>         0.1131
     47 H18         0.3768    3.3347    1.4394 H         1 <0>         0.1204
     48 H19         2.4762    4.3303    2.1721 H         1 <0>         0.1360
     49 H20         4.9723    4.2683    2.2387 H         1 <0>         0.1452
     50 H21         7.0412    3.1036    1.5894 H         1 <0>         0.1465
     51 H22         6.9201    1.0302    0.2714 H         1 <0>         0.1680
     52 H23         2.4618    0.0510   -1.5875 H         1 <0>         0.3990
     53 N3         -2.1420    1.3177    3.0235 N.ar      1 <0>        -0.5382
     54 H24        -2.6972    2.1544    2.8092 H         1 <0>         0.4630
@<TRIPOS>BOND
     1    1    2 1
     2    1   31 1
     3    1   32 1
     4    1   33 1
     5    2    3 ar
     6    2   53 ar
     7    3    4 ar
     8    3   34 1
     9    4    5 ar
    10    4   35 1
    11    5    6 ar
    12    5   36 1
    13    6    7 1
    14    6   53 ar
    15    7    8 1
    16    7   37 1
    17    8    9 1
    18    8   10 1
    19    8   20 1
    20   10   15 ar
    21   10   11 ar
    22   11   12 ar
    23   11   38 1
    24   12   13 ar
    25   12   39 1
    26   13   14 ar
    27   13   16 1
    28   14   15 ar
    29   14   40 1
    30   15   41 1
    31   16   17 1
    32   17   18 1
    33   17   42 1
    34   17   43 1
    35   18   19 2
    36   18   44 1
    37   19   45 1
    38   19   46 1
    39   20   29 ar
    40   20   21 ar
    41   21   22 ar
    42   21   47 1
    43   22   23 ar
    44   22   48 1
    45   23   28 ar
    46   23   24 ar
    47   24   25 ar
    48   24   49 1
    49   25   26 ar
    50   25   50 1
    51   26   27 ar
    52   26   51 1
    53   27   28 ar
    54   28   29 ar
    55   29   30 1
    56   30   52 1
    57   53   54 1
@<TRIPOS>MOLECULE
ZINC20958252
   59    62     0     0     0
SMALL
USER_CHARGES
2-benzamido-N-[(2R)-2-phenyl-2-pyrrolidin-1-yl-ethyl]benzamide
@<TRIPOS>ATOM
      1 C1         11.6650    3.7206   -3.4719 C.ar      1 <0>        -0.0905
      2 C2         11.9171    2.8983   -2.3897 C.ar      1 <0>        -0.0989
      3 C3         11.2674    3.1171   -1.1893 C.ar      1 <0>        -0.0980
      4 C4         10.3659    4.1583   -1.0710 C.ar      1 <0>        -0.1388
      5 C5         10.1099    4.9774   -2.1547 C.ar      1 <0>        -0.1191
      6 C6         10.7628    4.7613   -3.3539 C.ar      1 <0>        -0.0987
      7 C7          9.6576    4.3968    0.2377 C.3       1 <0>         0.0702
      8 H1         10.2325    3.9442    1.0591 H         1 <0>         0.1440
      9 C8          8.2466    3.8095    0.1683 C.3       1 <0>         0.1109
     10 N1          8.3298    2.3524    0.0411 N.am      1 <0>        -0.7356
     11 C9          7.2058    1.6089    0.0619 C.2       1 <0>         0.5819
     12 O1          6.1228    2.1474    0.1862 O.2       1 <0>        -0.5371
     13 C10         7.2896    0.1417   -0.0662 C.ar      1 <0>        -0.1853
     14 C11         8.5344   -0.4918   -0.0878 C.ar      1 <0>        -0.0667
     15 C12         8.6060   -1.8627   -0.2072 C.ar      1 <0>        -0.1436
     16 C13         7.4485   -2.6180   -0.3061 C.ar      1 <0>        -0.0605
     17 C14         6.2113   -2.0068   -0.2808 C.ar      1 <0>        -0.1337
     18 C15         6.1196   -0.6258   -0.1665 C.ar      1 <0>         0.2247
     19 N2          4.8731   -0.0069   -0.1457 N.am      1 <0>        -0.6728
     20 C16         3.8308   -0.6109    0.4587 C.2       1 <0>         0.5636
     21 O2          3.9557   -1.7337    0.9074 O.2       1 <0>        -0.5177
     22 C17         2.5358    0.0919    0.5758 C.ar      1 <0>        -0.1399
     23 C18         1.4542   -0.5309    1.2011 C.ar      1 <0>        -0.0560
     24 C19         0.2484    0.1308    1.3074 C.ar      1 <0>        -0.1257
     25 C20         0.1096    1.4088    0.7956 C.ar      1 <0>        -0.0873
     26 C21         1.1776    2.0318    0.1746 C.ar      1 <0>        -0.1284
     27 C22         2.3890    1.3815    0.0619 C.ar      1 <0>        -0.0811
     28 N3          9.5749    5.8409    0.4936 N.4       1 <0>        -0.4076
     29 C23         8.9080    6.1140    1.7924 C.3       1 <0>        -0.0070
     30 C24         9.3708    7.5529    2.1330 C.3       1 <0>        -0.1419
     31 C25        10.8358    7.5708    1.6395 C.3       1 <0>        -0.1414
     32 C26        10.9237    6.4386    0.5994 C.3       1 <0>         0.0038
     33 H2         12.1731    3.5502   -4.4095 H         1 <0>         0.1368
     34 H3         12.6219    2.0853   -2.4819 H         1 <0>         0.1387
     35 H4         11.4644    2.4747   -0.3437 H         1 <0>         0.1321
     36 H5          9.4023    5.7881   -2.0636 H         1 <0>         0.1183
     37 H6         10.5661    5.4039   -4.1993 H         1 <0>         0.1363
     38 H7          7.6969    4.0667    1.0857 H         1 <0>         0.0932
     39 H8          7.7193    4.2241   -0.7035 H         1 <0>         0.0893
     40 H9          9.3096    1.8652   -0.0714 H         1 <0>         0.4258
     41 H10         9.4396    0.0922   -0.0108 H         1 <0>         0.1224
     42 H11         9.5692   -2.3510   -0.2235 H         1 <0>         0.1335
     43 H12         7.5147   -3.6919   -0.3993 H         1 <0>         0.1364
     44 H13         5.3136   -2.6028   -0.3542 H         1 <0>         0.1498
     45 H14         4.7386    0.9752   -0.6226 H         1 <0>         0.4434
     46 H15         1.5610   -1.5287    1.6004 H         1 <0>         0.1381
     47 H16        -0.5892   -0.3499    1.7910 H         1 <0>         0.1341
     48 H17        -0.8379    1.9205    0.8772 H         1 <0>         0.1309
     49 H18         1.0626    3.0294   -0.2227 H         1 <0>         0.1300
     50 H19         3.2218    1.8688   -0.4233 H         1 <0>         0.1250
     51 H20         7.8176    6.0412    1.6671 H         1 <0>         0.1351
     52 H21         9.2414    5.3771    2.5379 H         1 <0>         0.1321
     53 H22         8.7362    8.2775    1.6018 H         1 <0>         0.0992
     54 H23         9.2872    7.7180    3.2173 H         1 <0>         0.1174
     55 H24        11.0599    8.5502    1.1916 H         1 <0>         0.1071
     56 H25        11.5112    7.3931    2.4893 H         1 <0>         0.1056
     57 H26        11.6411    5.6698    0.9222 H         1 <0>         0.1289
     58 H27        11.2272    6.8347   -0.3809 H         1 <0>         0.1309
     59 H28         9.0120    6.2629   -0.3520 H         1 <0>         0.4435
@<TRIPOS>BOND
     1    1    6 ar
     2    1    2 ar
     3    1   33 1
     4    2    3 ar
     5    2   34 1
     6    3    4 ar
     7    3   35 1
     8    4    5 ar
     9    4    7 1
    10    5    6 ar
    11    5   36 1
    12    6   37 1
    13    7    8 1
    14    7    9 1
    15    7   28 1
    16    9   10 1
    17    9   38 1
    18    9   39 1
    19   10   11 am
    20   10   40 1
    21   11   12 2
    22   11   13 1
    23   13   18 ar
    24   13   14 ar
    25   14   15 ar
    26   14   41 1
    27   15   16 ar
    28   15   42 1
    29   16   17 ar
    30   16   43 1
    31   17   18 ar
    32   17   44 1
    33   18   19 1
    34   19   20 am
    35   19   45 1
    36   20   21 2
    37   20   22 1
    38   22   27 ar
    39   22   23 ar
    40   23   24 ar
    41   23   46 1
    42   24   25 ar
    43   24   47 1
    44   25   26 ar
    45   25   48 1
    46   26   27 ar
    47   26   49 1
    48   27   50 1
    49   28   32 1
    50   28   29 1
    51   28   59 1
    52   29   30 1
    53   29   51 1
    54   29   52 1
    55   30   31 1
    56   30   53 1
    57   30   54 1
    58   31   32 1
    59   31   55 1
    60   31   56 1
    61   32   57 1
    62   32   58 1
@<TRIPOS>MOLECULE
ZINC38547007
   54    57     0     0     0
SMALL
USER_CHARGES

@<TRIPOS>ATOM
      1 C1         -0.4040    1.4895   -0.1698 C.3       1 <0>        -0.1253
      2 C2         -0.2769   -0.0117   -0.1346 C.ar      1 <0>        -0.0630
      3 C3         -0.1374   -0.7213   -1.3127 C.ar      1 <0>        -0.1105
      4 C4         -0.0207   -2.0983   -1.2804 C.ar      1 <0>        -0.0981
      5 C5         -0.0431   -2.7657   -0.0700 C.ar      1 <0>        -0.1169
      6 C6         -0.1817   -2.0560    1.1081 C.ar      1 <0>        -0.0994
      7 C7         -0.2940   -0.6786    1.0761 C.ar      1 <0>        -0.1127
      8 C8          0.0831   -4.2670   -0.0349 C.3       1 <0>         0.2618
      9 H1          0.4204   -4.6261   -1.0072 H         1 <0>         0.1018
     10 C9         -1.2568   -4.8763    0.2886 C.2       1 <0>        -0.1999
     11 C10        -1.5905   -5.1911    1.5930 C.2       1 <0>        -0.1381
     12 C11        -2.8035   -5.7372    1.8490 C.2       1 <0>        -0.1736
     13 S1         -3.5249   -5.8244    0.2184 S.3       1 <0>         0.1914
     14 C12        -2.1636   -5.1218   -0.6984 C.2       1 <0>         0.0831
     15 N1         -2.0555   -4.8868   -2.0706 N.am      1 <0>        -0.6198
     16 C13        -3.0768   -5.2035   -2.8910 C.2       1 <0>         0.6059
     17 O1         -4.0935   -5.6944   -2.4358 O.2       1 <0>        -0.4752
     18 C14        -2.9633   -4.9567   -4.3318 C.2       1 <0>        -0.1023
     19 C15        -3.9195   -5.2238   -5.2695 C.2       1 <0>        -0.0900
     20 C16        -3.3901   -4.8314   -6.5089 C.2       1 <0>        -0.2225
     21 C17        -2.1498   -4.3481   -6.2765 C.2       1 <0>         0.0137
     22 O2         -1.8982   -4.4207   -4.9629 O.3       1 <0>        -0.1703
     23 C18        -3.3919   -6.1622    3.1697 C.3       1 <0>        -0.0724
     24 N2          1.0550   -4.6515    0.9917 N.pl3     1 <0>        -0.6896
     25 C19         1.7559   -5.8459    0.8726 C.ar      1 <0>         0.4536
     26 C20         1.4418   -6.7302   -0.1547 C.ar      1 <0>        -0.2001
     27 C21         2.1472   -7.9150   -0.2614 C.ar      1 <0>         0.0415
     28 C22         3.1471   -8.1769    0.6662 C.ar      1 <0>        -0.1729
     29 C23         3.4059   -7.2547    1.6599 C.ar      1 <0>         0.1836
     30 N3          2.7202   -6.1295    1.7343 N.ar      1 <0>        -0.5041
     31 C24         4.4893   -7.5336    2.6696 C.3       1 <0>        -0.1415
     32 H2          0.5872    1.9395   -0.1153 H         1 <0>         0.0779
     33 H3         -0.8896    1.7914   -1.0978 H         1 <0>         0.0728
     34 H4         -1.0018    1.8235    0.6783 H         1 <0>         0.0724
     35 H5         -0.1199   -0.1999   -2.2583 H         1 <0>         0.1314
     36 H6          0.0876   -2.6528   -2.2008 H         1 <0>         0.1217
     37 H7         -0.1995   -2.5774    2.0538 H         1 <0>         0.1187
     38 H8         -0.3985   -0.1238    1.9968 H         1 <0>         0.1296
     39 H9         -0.8936   -5.0044    2.3967 H         1 <0>         0.1238
     40 H10        -1.2454   -4.4957   -2.4333 H         1 <0>         0.4190
     41 H11        -4.8941   -5.6540   -5.0920 H         1 <0>         0.1666
     42 H12        -3.8816   -4.9026   -7.4680 H         1 <0>         0.1650
     43 H13        -1.4742   -3.9631   -7.0260 H         1 <0>         0.2180
     44 H14        -3.9304   -5.3250    3.6137 H         1 <0>         0.0825
     45 H15        -4.0794   -6.9930    3.0106 H         1 <0>         0.0775
     46 H16        -2.5916   -6.4760    3.8399 H         1 <0>         0.0780
     47 H17         1.2094   -4.0726    1.7545 H         1 <0>         0.4184
     48 H18         0.6575   -6.4948   -0.8588 H         1 <0>         0.1722
     49 H19         1.9252   -8.6208   -1.0482 H         1 <0>         0.1740
     50 H20         3.7161   -9.0932    0.6107 H         1 <0>         0.1799
     51 H21         5.4370   -7.1377    2.3044 H         1 <0>         0.1134
     52 H22         4.2362   -7.0552    3.6157 H         1 <0>         0.0939
     53 H23         4.5785   -8.6096    2.8189 H         1 <0>         0.1172
     54 H24         2.9250   -5.4965    2.4403 H         1 <0>         0.4382
@<TRIPOS>BOND
     1    1    2 1
     2    1   32 1
     3    1   33 1
     4    1   34 1
     5    2    7 ar
     6    2    3 ar
     7    3    4 ar
     8    3   35 1
     9    4    5 ar
    10    4   36 1
    11    5    6 ar
    12    5    8 1
    13    6    7 ar
    14    6   37 1
    15    7   38 1
    16    8    9 1
    17    8   10 1
    18    8   24 1
    19   10   14 2
    20   10   11 1
    21   11   12 2
    22   11   39 1
    23   12   13 1
    24   12   23 1
    25   13   14 1
    26   14   15 1
    27   15   16 am
    28   15   40 1
    29   16   17 2
    30   16   18 1
    31   18   22 1
    32   18   19 2
    33   19   20 1
    34   19   41 1
    35   20   21 2
    36   20   42 1
    37   21   22 1
    38   21   43 1
    39   23   44 1
    40   23   45 1
    41   23   46 1
    42   24   25 1
    43   24   47 1
    44   25   30 ar
    45   25   26 ar
    46   26   27 ar
    47   26   48 1
    48   27   28 ar
    49   27   49 1
    50   28   29 ar
    51   28   50 1
    52   29   30 ar
    53   29   31 1
    54   30   54 1
    55   31   51 1
    56   31   52 1
    57   31   53 1
@<TRIPOS>MOLECULE
ZINC13564702
   57    61     0     0     0
SMALL
USER_CHARGES

@<TRIPOS>ATOM
      1 C1         -0.8644    1.4376    0.1537 C.3       1 <0>        -0.1255
      2 C2         -0.6615   -0.0552    0.1146 C.ar      1 <0>        -0.0576
      3 C3          0.4698   -0.6113    0.6867 C.ar      1 <0>        -0.1210
      4 C4          0.6629   -1.9759    0.6551 C.ar      1 <0>        -0.0867
      5 C5         -0.2884   -2.7993    0.0426 C.ar      1 <0>        -0.0532
      6 C6         -1.4291   -2.2292   -0.5333 C.ar      1 <0>        -0.0723
      7 C7         -1.6100   -0.8633   -0.4883 C.ar      1 <0>        -0.1189
      8 C8         -0.0899   -4.2570    0.0040 C.2       1 <0>         0.1936
      9 C9          0.3033   -5.0656    1.0844 C.2       1 <0>        -0.2584
     10 C10         0.6113   -4.7911    2.4338 C.2       1 <0>         0.1195
     11 C11         0.9666   -5.8269    3.2411 C.2       1 <0>        -0.3310
     12 C12         1.0174   -7.1338    2.7137 C.2       1 <0>         0.5563
     13 O1          1.3368   -8.0637    3.4416 O.2       1 <0>        -0.5345
     14 N1          0.7225   -7.3738    1.4342 N.am      1 <0>        -0.5806
     15 C13         0.3726   -6.3998    0.6141 C.cat     1 <0>         0.3731
     16 N2          0.0264   -6.3799   -0.7208 N.pl3     1 <0>        -0.3138
     17 N3         -0.2608   -5.0581   -1.0822 N.2       1 <0>        -0.2400
     18 C14        -0.0325   -7.4906   -1.5673 C.ar      1 <0>         0.1142
     19 C15        -0.6771   -8.6489   -1.1521 C.ar      1 <0>        -0.1285
     20 C16        -0.7338   -9.7443   -1.9912 C.ar      1 <0>        -0.0947
     21 C17        -0.1494   -9.6892   -3.2433 C.ar      1 <0>        -0.0980
     22 C18         0.4935   -8.5377   -3.6596 C.ar      1 <0>        -0.0957
     23 C19         0.5485   -7.4366   -2.8280 C.ar      1 <0>        -0.0902
     24 C20         1.3042   -5.5793    4.6887 C.3       1 <0>         0.0773
     25 N4          0.1111   -5.8052    5.5153 N.4       1 <0>        -0.5102
     26 C21         0.4401   -5.5638    6.9265 C.3       1 <0>         0.0461
     27 C22        -0.7839   -5.7955    7.7745 C.ar      1 <0>        -0.1644
     28 C23        -1.6531   -4.7521    8.0329 C.ar      1 <0>        -0.0789
     29 C24        -2.7759   -4.9640    8.8105 C.ar      1 <0>        -0.1087
     30 C25        -3.0298   -6.2208    9.3304 C.ar      1 <0>        -0.0063
     31 C26        -2.1595   -7.2646    9.0715 C.ar      1 <0>        -0.1080
     32 C27        -1.0401   -7.0528    8.2890 C.ar      1 <0>        -0.0775
     33 Cl1        -4.4395   -6.4876   10.3078 Cl        1 <0>        -0.0392
     34 H1         -1.4063    1.7070    1.0603 H         1 <0>         0.0774
     35 H2          0.1048    1.9363    0.1481 H         1 <0>         0.0724
     36 H3         -1.4385    1.7492   -0.7189 H         1 <0>         0.0728
     37 H4          1.2032    0.0256    1.1587 H         1 <0>         0.1320
     38 H5          1.5462   -2.4083    1.1015 H         1 <0>         0.1264
     39 H6         -2.1679   -2.8579   -1.0079 H         1 <0>         0.1294
     40 H7         -2.4922   -0.4221   -0.9281 H         1 <0>         0.1323
     41 H8          0.5663   -3.7823    2.8167 H         1 <0>         0.1582
     42 H9         -1.1330   -8.6929   -0.1740 H         1 <0>         0.1255
     43 H10        -1.2348  -10.6452   -1.6689 H         1 <0>         0.1415
     44 H11        -0.1949  -10.5474   -3.8974 H         1 <0>         0.1400
     45 H12         0.9491   -8.4981   -4.6380 H         1 <0>         0.1427
     46 H13         1.0466   -6.5360   -3.1556 H         1 <0>         0.1385
     47 H14         2.0957   -6.2614    4.9991 H         1 <0>         0.1445
     48 H15         1.6422   -4.5504    4.8121 H         1 <0>         0.1421
     49 H16        -0.6216   -5.1737    5.2281 H         1 <0>         0.4234
     50 H17         1.2316   -6.2460    7.2369 H         1 <0>         0.1417
     51 H18         0.7782   -4.5349    7.0499 H         1 <0>         0.1416
     52 H19        -1.4546   -3.7710    7.6273 H         1 <0>         0.1421
     53 H20        -3.4547   -4.1487    9.0126 H         1 <0>         0.1467
     54 H21        -2.3570   -8.2458    9.4774 H         1 <0>         0.1467
     55 H22        -0.3631   -7.8687    8.0829 H         1 <0>         0.1426
     56 H23         0.7661   -8.2833    1.0996 H         1 <0>         0.4238
     57 H24        -0.2018   -6.7576    5.4011 H         1 <0>         0.4296
@<TRIPOS>BOND
     1    1    2 1
     2    1   34 1
     3    1   35 1
     4    1   36 1
     5    2    7 ar
     6    2    3 ar
     7    3    4 ar
     8    3   37 1
     9    4    5 ar
    10    4   38 1
    11    5    6 ar
    12    5    8 1
    13    6    7 ar
    14    6   39 1
    15    7   40 1
    16    8   17 1
    17    8    9 2
    18    9   15 1
    19    9   10 1
    20   10   11 2
    21   10   41 1
    22   11   12 1
    23   11   24 1
    24   12   13 2
    25   12   14 am
    26   14   15 2
    27   14   56 1
    28   15   16 1
    29   16   17 1
    30   16   18 1
    31   18   23 ar
    32   18   19 ar
    33   19   20 ar
    34   19   42 1
    35   20   21 ar
    36   20   43 1
    37   21   22 ar
    38   21   44 1
    39   22   23 ar
    40   22   45 1
    41   23   46 1
    42   24   25 1
    43   24   47 1
    44   24   48 1
    45   25   26 1
    46   25   49 1
    47   25   57 1
    48   26   27 1
    49   26   50 1
    50   26   51 1
    51   27   32 ar
    52   27   28 ar
    53   28   29 ar
    54   28   52 1
    55   29   30 ar
    56   29   53 1
    57   30   31 ar
    58   30   33 1
    59   31   32 ar
    60   31   54 1
    61   32   55 1
@<TRIPOS>MOLECULE
ZINC66291295
   64    66     0     0     0
SMALL
USER_CHARGES

@<TRIPOS>ATOM
      1 C1          0.5721    1.4766    0.3050 C.3       1 <0>        -0.1674
      2 C2          0.4160   -0.0424    0.2095 C.3       1 <0>         0.1572
      3 H1         -0.6430   -0.2967    0.1652 H         1 <0>         0.0969
      4 C3          1.1152   -0.5485   -1.0538 C.3       1 <0>        -0.1522
      5 C4          0.8579   -2.0248   -1.2132 C.2       1 <0>         0.5142
      6 O1          0.1818   -2.6141   -0.3967 O.2       1 <0>        -0.4948
      7 N1          1.3790   -2.6902   -2.2630 N.am      1 <0>        -0.7582
      8 C5          1.1289   -4.1254   -2.4179 C.3       1 <0>         0.0962
      9 C6          1.7179   -4.6053   -3.7459 C.3       1 <0>         0.0156
     10 H2          2.8010   -4.4842   -3.7279 H         1 <0>         0.1475
     11 C7          1.3731   -6.0815   -3.9529 C.3       1 <0>        -0.1836
     12 N2          1.1547   -3.8119   -4.8465 N.4       1 <0>        -0.3823
     13 C8         -0.2842   -4.0916   -4.9688 C.3       1 <0>        -0.0124
     14 C9         -0.9068   -3.0477   -5.8968 C.3       1 <0>        -0.1037
     15 C10        -0.1140   -2.9652   -7.1762 C.ar      1 <0>        -0.0906
     16 C11        -0.6894   -2.3486   -8.2763 C.ar      1 <0>        -0.1041
     17 C12         0.0075   -2.2514   -9.4641 C.ar      1 <0>        -0.0909
     18 C13         1.2854   -2.7713   -9.5561 C.ar      1 <0>        -0.1045
     19 C14         1.8584   -3.3866   -8.4615 C.ar      1 <0>        -0.0927
     20 C15         1.1589   -3.4865   -7.2679 C.ar      1 <0>        -0.1354
     21 C16         1.8195   -4.1733   -6.1018 C.3       1 <0>         0.0436
     22 N3          1.0203   -0.6704    1.3870 N.am      1 <0>        -0.7237
     23 C17         0.3069   -0.7982    2.5233 C.2       1 <0>         0.5256
     24 O2         -0.8353   -0.3933    2.5710 O.2       1 <0>        -0.5324
     25 C18         0.9285   -1.4443    3.7346 C.3       1 <0>        -0.1058
     26 C19         1.3400   -2.8778    3.3933 C.3       1 <0>        -0.1025
     27 C20         1.9711   -3.5338    4.6231 C.3       1 <0>        -0.1189
     28 C21         0.9563   -3.5533    5.7680 C.3       1 <0>        -0.1234
     29 C22         0.5448   -2.1197    6.1093 C.3       1 <0>        -0.1215
     30 C23        -0.0863   -1.4638    4.8795 C.3       1 <0>        -0.0998
     31 H3          1.6311    1.7309    0.3492 H         1 <0>         0.0600
     32 H4          0.1225    1.9439   -0.5711 H         1 <0>         0.0678
     33 H5          0.0740    1.8372    1.2050 H         1 <0>         0.0702
     34 H6          0.7268   -0.0162   -1.9221 H         1 <0>         0.1127
     35 H7          2.1878   -0.3736   -0.9703 H         1 <0>         0.1055
     36 H8          1.9197   -2.2189   -2.9159 H         1 <0>         0.3954
     37 H9          1.5974   -4.6666   -1.5959 H         1 <0>         0.1137
     38 H10         0.0547   -4.3100   -2.4090 H         1 <0>         0.0976
     39 H11         0.2937   -6.1913   -4.0576 H         1 <0>         0.0876
     40 H12         1.8646   -6.4464   -4.8548 H         1 <0>         0.0900
     41 H13         1.7153   -6.6585   -3.0938 H         1 <0>         0.1120
     42 H14        -0.4291   -5.0871   -5.3884 H         1 <0>         0.1379
     43 H15        -0.7529   -4.0339   -3.9864 H         1 <0>         0.1374
     44 H16        -1.9341   -3.3321   -6.1247 H         1 <0>         0.1246
     45 H17        -0.9017   -2.0755   -5.4039 H         1 <0>         0.1021
     46 H18        -1.6877   -1.9427   -8.2040 H         1 <0>         0.1354
     47 H19        -0.4444   -1.7709  -10.3192 H         1 <0>         0.1373
     48 H20         1.8342   -2.6964  -10.4833 H         1 <0>         0.1378
     49 H21         2.8565   -3.7925   -8.5348 H         1 <0>         0.1345
     50 H22         2.8661   -3.8728   -6.0536 H         1 <0>         0.1387
     51 H23         1.7623   -5.2529   -6.2409 H         1 <0>         0.1413
     52 H24         1.9338   -0.9943    1.3488 H         1 <0>         0.3951
     53 H25         1.8079   -0.8764    4.0382 H         1 <0>         0.0958
     54 H26         0.4606   -3.4458    3.0897 H         1 <0>         0.0678
     55 H27         2.0629   -2.8639    2.5777 H         1 <0>         0.0589
     56 H28         2.2642   -4.5551    4.3800 H         1 <0>         0.0646
     57 H29         2.8505   -2.9658    4.9268 H         1 <0>         0.0644
     58 H30         0.0769   -4.1212    5.4644 H         1 <0>         0.0628
     59 H31         1.4059   -4.0206    6.6441 H         1 <0>         0.0650
     60 H32        -0.1781   -2.1336    6.9249 H         1 <0>         0.0681
     61 H33         1.4242   -1.5518    6.4129 H         1 <0>         0.0632
     62 H34        -0.3794   -0.4425    5.1226 H         1 <0>         0.0698
     63 H35        -0.9657   -2.0317    4.5759 H         1 <0>         0.0696
     64 H36         1.2945   -2.8300   -4.6609 H         1 <0>         0.4196
@<TRIPOS>BOND
     1    1    2 1
     2    1   31 1
     3    1   32 1
     4    1   33 1
     5    2    3 1
     6    2    4 1
     7    2   22 1
     8    4    5 1
     9    4   34 1
    10    4   35 1
    11    5    6 2
    12    5    7 am
    13    7    8 1
    14    7   36 1
    15    8    9 1
    16    8   37 1
    17    8   38 1
    18    9   10 1
    19    9   11 1
    20    9   12 1
    21   11   39 1
    22   11   40 1
    23   11   41 1
    24   12   21 1
    25   12   13 1
    26   12   64 1
    27   13   14 1
    28   13   42 1
    29   13   43 1
    30   14   15 1
    31   14   44 1
    32   14   45 1
    33   15   20 ar
    34   15   16 ar
    35   16   17 ar
    36   16   46 1
    37   17   18 ar
    38   17   47 1
    39   18   19 ar
    40   18   48 1
    41   19   20 ar
    42   19   49 1
    43   20   21 1
    44   21   50 1
    45   21   51 1
    46   22   23 am
    47   22   52 1
    48   23   24 2
    49   23   25 1
    50   25   30 1
    51   25   26 1
    52   25   53 1
    53   26   27 1
    54   26   54 1
    55   26   55 1
    56   27   28 1
    57   27   56 1
    58   27   57 1
    59   28   29 1
    60   28   58 1
    61   28   59 1
    62   29   30 1
    63   29   60 1
    64   29   61 1
    65   30   62 1
    66   30   63 1
@<TRIPOS>MOLECULE
ZINC12596048
   46    49     0     0     0
SMALL
USER_CHARGES
5-[2-[(4-isopropylphenyl)amino]-6H-1,3,4-thiadiazin-5-yl]indolin-2-one
@<TRIPOS>ATOM
      1 C1          1.8571   -7.4824    0.0515 C.3       1 <0>        -0.1453
      2 C2          2.3003   -6.6759   -1.1708 C.3       1 <0>        -0.0562
      3 C3          1.2002   -6.7145   -2.2335 C.3       1 <0>        -0.1454
      4 C4          2.5561   -5.2475   -0.7644 C.ar      1 <0>        -0.0863
      5 C5          3.8116   -4.6947   -0.9395 C.ar      1 <0>        -0.0991
      6 C6          4.0493   -3.3859   -0.5685 C.ar      1 <0>        -0.1394
      7 C7          3.0257   -2.6245   -0.0189 C.ar      1 <0>         0.1400
      8 C8          1.7673   -3.1847    0.1609 C.ar      1 <0>        -0.1051
      9 C9          1.5348   -4.4923   -0.2175 C.ar      1 <0>        -0.0933
     10 N1          3.2629   -1.2993    0.3577 N.pl3     1 <0>        -0.6140
     11 C10         2.2578   -0.3668    0.2604 C.2       1 <0>         0.3384
     12 N2          1.1078   -0.6905   -0.2817 N.2       1 <0>        -0.3489
     13 N3          0.1226    0.0981   -0.4313 N.2       1 <0>        -0.2518
     14 C11         0.1510    1.3886   -0.4469 C.2       1 <0>         0.1135
     15 C12         1.4398    2.1612   -0.3055 C.3       1 <0>        -0.1018
     16 S1          2.5075    1.2745    0.8641 S.3       1 <0>        -0.0940
     17 C13        -1.1097    2.1281   -0.6133 C.ar      1 <0>        -0.0597
     18 C14        -1.1092    3.5272   -0.6339 C.ar      1 <0>        -0.0635
     19 C15        -2.2887    4.2171   -0.7896 C.ar      1 <0>        -0.1377
     20 C16        -3.4955    3.5292   -0.9288 C.ar      1 <0>         0.1577
     21 C17        -3.4906    2.1381   -0.9076 C.ar      1 <0>        -0.1449
     22 C18        -2.3190    1.4376   -0.7582 C.ar      1 <0>        -0.0196
     23 C19        -4.9290    1.7056   -1.0787 C.3       1 <0>        -0.1155
     24 C20        -5.6933    3.0073   -1.1922 C.2       1 <0>         0.5287
     25 O1         -6.8908    3.1287   -1.3414 O.2       1 <0>        -0.4983
     26 N4         -4.7965    4.0030   -1.0963 N.am      1 <0>        -0.6599
     27 H1          1.6720   -8.5156   -0.2425 H         1 <0>         0.0584
     28 H2          2.6408   -7.4549    0.8086 H         1 <0>         0.0556
     29 H3          0.9428   -7.0513    0.4592 H         1 <0>         0.0571
     30 H4          3.2146   -7.1070   -1.5786 H         1 <0>         0.0769
     31 H5          1.5159   -6.1400   -3.1043 H         1 <0>         0.0558
     32 H6          1.0151   -7.7477   -2.5275 H         1 <0>         0.0581
     33 H7          0.2859   -6.2835   -1.8258 H         1 <0>         0.0576
     34 H8          4.6069   -5.2871   -1.3672 H         1 <0>         0.1259
     35 H9          5.0299   -2.9546   -0.7059 H         1 <0>         0.1245
     36 H10         0.9706   -2.5970    0.5925 H         1 <0>         0.1398
     37 H11         0.5554   -4.9270   -0.0824 H         1 <0>         0.1254
     38 H12         4.1368   -1.0379    0.6876 H         1 <0>         0.4241
     39 H13         1.9345    2.2316   -1.2743 H         1 <0>         0.1152
     40 H14         1.2294    3.1611    0.0740 H         1 <0>         0.1436
     41 H15        -0.1798    4.0669   -0.5276 H         1 <0>         0.1358
     42 H16        -2.2813    5.2970   -0.8047 H         1 <0>         0.1334
     43 H17        -2.3309    0.3577   -0.7483 H         1 <0>         0.1447
     44 H18        -5.2640    1.1406   -0.2088 H         1 <0>         0.1270
     45 H19        -5.0446    1.1143   -1.9870 H         1 <0>         0.1271
     46 H20        -5.0275    4.9441   -1.1390 H         1 <0>         0.4151
@<TRIPOS>BOND
     1    1    2 1
     2    1   27 1
     3    1   28 1
     4    1   29 1
     5    2    3 1
     6    2    4 1
     7    2   30 1
     8    3   31 1
     9    3   32 1
    10    3   33 1
    11    4    9 ar
    12    4    5 ar
    13    5    6 ar
    14    5   34 1
    15    6    7 ar
    16    6   35 1
    17    7    8 ar
    18    7   10 1
    19    8    9 ar
    20    8   36 1
    21    9   37 1
    22   10   11 1
    23   10   38 1
    24   11   16 1
    25   11   12 2
    26   12   13 1
    27   13   14 2
    28   14   15 1
    29   14   17 1
    30   15   16 1
    31   15   39 1
    32   15   40 1
    33   17   22 ar
    34   17   18 ar
    35   18   19 ar
    36   18   41 1
    37   19   20 ar
    38   19   42 1
    39   20   26 1
    40   20   21 ar
    41   21   22 ar
    42   21   23 1
    43   22   43 1
    44   23   24 1
    45   23   44 1
    46   23   45 1
    47   24   25 2
    48   24   26 am
    49   26   46 1
@<TRIPOS>MOLECULE
ZINC20695918
   39    42     0     0     0
SMALL
USER_CHARGES
2-[(3aR,4R,9bR)-6-fluoro-9-nitro-3a,4,5,9b-tetrahydro-3H-cyclopenta[c]quinolin-4-yl]-4-bromo-phenol
@<TRIPOS>ATOM
      1 C1          0.2150    4.1699   -0.3452 C.ar      1 <0>        -0.0415
      2 C2          1.3678    3.4447   -0.5774 C.ar      1 <0>        -0.1514
      3 C3          1.3356    2.0588   -0.5302 C.ar      1 <0>         0.1935
      4 C4          0.1451    1.4037   -0.2497 C.ar      1 <0>        -0.1924
      5 C5         -1.0064    2.1322   -0.0239 C.ar      1 <0>        -0.0426
      6 C6         -0.9708    3.5148   -0.0658 C.ar      1 <0>        -0.1312
      7 Br1        -2.5473    4.5099    0.2510 Br        1 <0>        -0.0443
      8 C7          0.1072   -0.1020   -0.1977 C.3       1 <0>         0.1962
      9 H1          0.8320   -0.4965   -0.9250 H         1 <0>         0.0777
     10 C8          0.4077   -0.5777    1.2084 C.3       1 <0>        -0.0917
     11 H2         -0.3734   -0.0900    1.8101 H         1 <0>         0.1125
     12 C9          1.7975   -0.2867    1.7855 C.3       1 <0>        -0.0825
     13 C10         1.9817   -1.4657    2.7444 C.2       1 <0>        -0.1537
     14 C11         1.2554   -2.5001    2.3349 C.2       1 <0>        -0.1797
     15 C12         0.5675   -2.1244    1.0752 C.3       1 <0>        -0.0326
     16 H3          1.1767   -2.6095    0.2983 H         1 <0>         0.1219
     17 C13        -0.7619   -2.6574    0.7041 C.ar      1 <0>        -0.0780
     18 C14        -1.1914   -3.8972    1.1305 C.ar      1 <0>         0.0098
     19 C15        -2.4323   -4.3768    0.7577 C.ar      1 <0>        -0.0923
     20 C16        -3.2485   -3.6069   -0.0513 C.ar      1 <0>        -0.1017
     21 C17        -2.8302   -2.3644   -0.4771 C.ar      1 <0>         0.0622
     22 C18        -1.5806   -1.8626   -0.1009 C.ar      1 <0>         0.2070
     23 N1         -1.2420   -0.5819   -0.5375 N.pl3     1 <0>        -0.7323
     24 F1         -3.6371   -1.6228   -1.2671 F         1 <0>        -0.1274
     25 N2         -0.3157   -4.7201    1.9947 N.pl3     1 <0>         0.0229
     26 O1          0.8390   -4.9291    1.6687 O.2       1 <0>        -0.1382
     27 O2         -0.7500   -5.1882    3.0319 O.3       1 <0>        -0.1456
     28 O3          2.4687    1.3436   -0.7578 O.3       1 <0>        -0.4972
     29 H4          0.2396    5.2490   -0.3823 H         1 <0>         0.1421
     30 H5          2.2936    3.9566   -0.7952 H         1 <0>         0.1433
     31 H6         -1.9342    1.6225    0.1900 H         1 <0>         0.1347
     32 H7          2.5364   -0.2686    0.9708 H         1 <0>         0.0814
     33 H8          1.7870    0.6894    2.2926 H         1 <0>         0.0809
     34 H9          2.5931   -1.5490    3.6551 H         1 <0>         0.1400
     35 H10         1.2459   -3.4315    2.9200 H         1 <0>         0.1434
     36 H11        -2.7630   -5.3478    1.0958 H         1 <0>         0.1535
     37 H12        -4.2169   -3.9803   -0.3499 H         1 <0>         0.1587
     38 H13        -1.9269    0.0617   -1.1091 H         1 <0>         0.4462
     39 H14         2.4423    0.2446   -0.7202 H         1 <0>         0.4284
@<TRIPOS>BOND
     1    1    6 ar
     2    1    2 ar
     3    1   29 1
     4    2    3 ar
     5    2   30 1
     6    3    4 ar
     7    3   28 1
     8    4    5 ar
     9    4    8 1
    10    5    6 ar
    11    5   31 1
    12    6    7 1
    13    8    9 1
    14    8   23 1
    15    8   10 1
    16   10   11 1
    17   10   15 1
    18   10   12 1
    19   12   13 1
    20   12   32 1
    21   12   33 1
    22   13   14 2
    23   13   34 1
    24   14   15 1
    25   14   35 1
    26   15   16 1
    27   15   17 1
    28   17   22 ar
    29   17   18 ar
    30   18   19 ar
    31   18   25 1
    32   19   20 ar
    33   19   36 1
    34   20   21 ar
    35   20   37 1
    36   21   22 ar
    37   21   24 1
    38   22   23 1
    39   23   38 1
    40   25   26 2
    41   25   27 1
    42   28   39 1
@<TRIPOS>MOLECULE
ZINC14475876
   39    42     0     0     0
SMALL
USER_CHARGES

@<TRIPOS>ATOM
      1 C1         -0.0167    1.3784    0.0096 C.ar      1 <0>        -0.1642
      2 C2          1.1717    2.0857    0.0021 C.ar      1 <0>        -0.0518
      3 C3          2.3777    1.4194   -0.0092 C.ar      1 <0>        -0.1338
      4 C4          2.4053    0.0202   -0.0025 C.ar      1 <0>         0.2470
      5 C5          1.2053   -0.6814   -0.0045 C.ar      1 <0>        -0.1657
      6 C6          0.0021   -0.0041    0.0020 C.ar      1 <0>        -0.0455
      7 Br1         1.2207   -2.5723   -0.0169 Br        1 <0>        -0.0502
      8 N1          3.6135   -0.6876    0.0290 N.pl3     1 <0>        -0.7447
      9 C7          4.9145    0.0161    0.0197 C.3       1 <0>         0.2126
     10 H1          5.2111    0.2456   -1.0038 H         1 <0>         0.1009
     11 C8          4.6924    1.2984    0.8013 C.3       1 <0>        -0.1053
     12 H2          4.3184    1.0933    1.8044 H         1 <0>         0.0977
     13 C9          3.6758    2.1273   -0.0395 C.3       1 <0>        -0.0238
     14 H3          4.0313    2.1389   -1.0699 H         1 <0>         0.0879
     15 C10         3.8324    3.5034    0.4977 C.2       1 <0>        -0.1424
     16 C11         5.0675    3.6379    0.9652 C.2       1 <0>        -0.1650
     17 C12         5.8442    2.3120    0.8259 C.3       1 <0>        -0.0986
     18 C13         5.9679   -0.8287    0.6889 C.ar      1 <0>        -0.1209
     19 C14         5.5961   -1.8494    1.5426 C.ar      1 <0>        -0.0336
     20 C15         6.5620   -2.6248    2.1567 C.ar      1 <0>        -0.0547
     21 C16         7.9022   -2.3809    1.9185 C.ar      1 <0>        -0.0346
     22 C17         8.2790   -1.3617    1.0660 C.ar      1 <0>        -0.1395
     23 C18         7.3114   -0.5858    0.4439 C.ar      1 <0>         0.1775
     24 O1          7.6795    0.4144   -0.3994 O.3       1 <0>        -0.4870
     25 N2          6.1610   -3.7173    3.0711 N.pl3     1 <0>         0.0328
     26 O2          4.9896   -3.9311    3.2804 O.2       1 <0>        -0.1528
     27 O3          7.0048   -4.3959    3.6088 O.3       1 <0>        -0.1523
     28 H4         -0.9590    1.9058    0.0260 H         1 <0>         0.1310
     29 H5          1.1544    3.1655    0.0046 H         1 <0>         0.1287
     30 H6         -0.9266   -0.5555    0.0012 H         1 <0>         0.1330
     31 H7          3.5968   -1.6570    0.0577 H         1 <0>         0.4040
     32 H8          3.0689    4.2672    0.5061 H         1 <0>         0.1357
     33 H9          5.4716    4.5417    1.3968 H         1 <0>         0.1331
     34 H10         6.5008    2.1365    1.6781 H         1 <0>         0.0760
     35 H11         6.4049    2.2889   -0.1085 H         1 <0>         0.0881
     36 H12         4.5501   -2.0416    1.7305 H         1 <0>         0.1576
     37 H13         8.6548   -2.9878    2.3998 H         1 <0>         0.1617
     38 H14         9.3258   -1.1714    0.8806 H         1 <0>         0.1593
     39 H15         7.8078    1.2684    0.0356 H         1 <0>         0.4016
@<TRIPOS>BOND
     1    1    6 ar
     2    1    2 ar
     3    1   28 1
     4    2    3 ar
     5    2   29 1
     6    3   13 1
     7    3    4 ar
     8    4    5 ar
     9    4    8 1
    10    5    6 ar
    11    5    7 1
    12    6   30 1
    13    8    9 1
    14    8   31 1
    15    9   10 1
    16    9   11 1
    17    9   18 1
    18   11   12 1
    19   11   17 1
    20   11   13 1
    21   13   14 1
    22   13   15 1
    23   15   16 2
    24   15   32 1
    25   16   17 1
    26   16   33 1
    27   17   34 1
    28   17   35 1
    29   18   23 ar
    30   18   19 ar
    31   19   20 ar
    32   19   36 1
    33   20   21 ar
    34   20   25 1
    35   21   22 ar
    36   21   37 1
    37   22   23 ar
    38   22   38 1
    39   23   24 1
    40   24   39 1
    41   25   26 2
    42   25   27 1
@<TRIPOS>MOLECULE
ZINC06132001
   50    55     0     0     0
SMALL
USER_CHARGES

@<TRIPOS>ATOM
      1 C1         -0.0184    1.5028    0.0103 C.3       1 <0>        -0.1153
      2 C2          0.0021   -0.0041    0.0020 C.ar      1 <0>        -0.0848
      3 C3          0.0057   -0.6888   -1.1991 C.ar      1 <0>        -0.1219
      4 C4          0.0245   -2.0707   -1.2067 C.ar      1 <0>        -0.1180
      5 C5          0.0400   -2.7685   -0.0132 C.ar      1 <0>        -0.1089
      6 C6          0.0373   -2.0840    1.1875 C.ar      1 <0>        -0.0661
      7 C7          0.0229   -0.7015    1.1951 C.ar      1 <0>        -0.1041
      8 C8          0.0538   -2.8445    2.4885 C.3       1 <0>         0.1217
      9 H1          0.0490   -2.1456    3.3249 H         1 <0>         0.0963
     10 C9         -1.1534   -3.7470    2.5689 C.2       1 <0>        -0.2416
     11 C10        -1.0820   -5.1543    2.4665 C.2       1 <0>         0.3260
     12 N1         -2.2895   -5.6357    2.5691 N.2       1 <0>        -0.2838
     13 N2         -3.1764   -4.5622    2.7450 N.pl3     1 <0>        -0.3283
     14 C11        -2.4484   -3.4092    2.7419 C.2       1 <0>         0.3062
     15 O1         -2.9373   -2.1512    2.8862 O.3       1 <0>        -0.4526
     16 C12        -4.5656   -4.6584    2.8970 C.ar      1 <0>         0.1473
     17 C13        -5.2380   -3.7699    3.7257 C.ar      1 <0>        -0.1205
     18 C14        -6.6078   -3.8670    3.8731 C.ar      1 <0>        -0.0991
     19 C15        -7.3097   -4.8477    3.1965 C.ar      1 <0>        -0.1183
     20 C16        -6.6430   -5.7340    2.3705 C.ar      1 <0>        -0.1023
     21 C17        -5.2740   -5.6388    2.2148 C.ar      1 <0>        -0.1095
     22 N3          0.1308   -5.8377    2.2914 N.pl3     1 <0>        -0.5990
     23 C18         1.2772   -5.0873    2.4588 C.2       1 <0>         0.2697
     24 C19         1.2881   -3.7179    2.5566 C.2       1 <0>        -0.2927
     25 C20         2.6160   -3.2638    2.7268 C.2       1 <0>         0.4499
     26 O2          2.9693   -2.1059    2.8459 O.2       1 <0>        -0.4287
     27 C21         3.4974   -4.4501    2.7348 C.ar      1 <0>        -0.1542
     28 C22         2.6570   -5.5828    2.5656 C.ar      1 <0>        -0.0664
     29 C23         3.1822   -6.8644    2.5292 C.ar      1 <0>        -0.0789
     30 C24         4.5682   -6.9837    2.6653 C.ar      1 <0>        -0.0998
     31 C25         5.3801   -5.8864    2.8287 C.ar      1 <0>        -0.1105
     32 C26         4.8663   -4.5818    2.8688 C.ar      1 <0>        -0.0433
     33 H2          1.0042    1.8801    0.0026 H         1 <0>         0.0709
     34 H3         -0.5455    1.8639   -0.8728 H         1 <0>         0.0651
     35 H4         -0.5286    1.8543    0.9071 H         1 <0>         0.0667
     36 H5         -0.0064   -0.1437   -2.1314 H         1 <0>         0.1196
     37 H6          0.0266   -2.6056   -2.1449 H         1 <0>         0.1188
     38 H7          0.0540   -3.8484   -0.0191 H         1 <0>         0.1112
     39 H8          0.0246   -0.1666    2.1333 H         1 <0>         0.1234
     40 H9         -3.1800   -1.7255    2.0525 H         1 <0>         0.4046
     41 H10        -4.6904   -3.0039    4.2547 H         1 <0>         0.1374
     42 H11        -7.1313   -3.1765    4.5178 H         1 <0>         0.1343
     43 H12        -8.3807   -4.9219    3.3137 H         1 <0>         0.1305
     44 H13        -7.1939   -6.4989    1.8434 H         1 <0>         0.1331
     45 H14        -4.7544   -6.3287    1.5663 H         1 <0>         0.1330
     46 H15         0.1619   -6.7806    2.0660 H         1 <0>         0.4288
     47 H16         2.5501   -7.7308    2.4020 H         1 <0>         0.1396
     48 H17         5.0143   -7.9670    2.6418 H         1 <0>         0.1338
     49 H18         6.4454   -6.0320    2.9306 H         1 <0>         0.1341
     50 H19         5.5072   -3.7220    2.9972 H         1 <0>         0.1467
@<TRIPOS>BOND
     1    1    2 1
     2    1   33 1
     3    1   34 1
     4    1   35 1
     5    2    7 ar
     6    2    3 ar
     7    3    4 ar
     8    3   36 1
     9    4    5 ar
    10    4   37 1
    11    5    6 ar
    12    5   38 1
    13    6    7 ar
    14    6    8 1
    15    7   39 1
    16    8    9 1
    17    8   24 1
    18    8   10 1
    19   10   14 2
    20   10   11 1
    21   11   12 2
    22   11   22 1
    23   12   13 1
    24   13   14 1
    25   13   16 1
    26   14   15 1
    27   15   40 1
    28   16   21 ar
    29   16   17 ar
    30   17   18 ar
    31   17   41 1
    32   18   19 ar
    33   18   42 1
    34   19   20 ar
    35   19   43 1
    36   20   21 ar
    37   20   44 1
    38   21   45 1
    39   22   23 1
    40   22   46 1
    41   23   28 1
    42   23   24 2
    43   24   25 1
    44   25   26 2
    45   25   27 1
    46   27   32 ar
    47   27   28 ar
    48   28   29 ar
    49   29   30 ar
    50   29   47 1
    51   30   31 ar
    52   30   48 1
    53   31   32 ar
    54   31   49 1
    55   32   50 1
@<TRIPOS>MOLECULE
ZINC13465520
   35    38     0     0     0
SMALL
USER_CHARGES

@<TRIPOS>ATOM
      1 C1         -0.0166    1.3741    0.0096 C.ar      1 <0>        -0.1207
      2 C2          1.1717    2.0890    0.0021 C.ar      1 <0>        -0.0938
      3 C3          2.3851    1.4346   -0.0130 C.ar      1 <0>        -0.1123
      4 C4          2.4249    0.0448   -0.0208 C.ar      1 <0>         0.0944
      5 C5          1.2212   -0.6773   -0.0131 C.ar      1 <0>        -0.0424
      6 C6          0.0021   -0.0041    0.0020 C.ar      1 <0>        -0.0675
      7 C7          1.5984   -2.1036   -0.0252 C.2       1 <0>        -0.0488
      8 C8          2.9856   -2.1382   -0.0390 C.2       1 <0>         0.3698
      9 N1          3.4663   -0.8660   -0.0363 N.pl3     1 <0>        -0.5705
     10 H1          4.4072   -0.6302   -0.0442 H         1 <0>         0.4255
     11 O1          3.7405   -3.2601   -0.0525 O.3       1 <0>        -0.4413
     12 N2          0.7633   -3.1608   -0.0227 N.2       1 <0>        -0.1175
     13 N3          1.2400   -4.3594   -0.0344 N.2       1 <0>        -0.2166
     14 C9          0.3978   -5.4255   -0.0320 C.2       1 <0>         0.2908
     15 N4          0.6836   -6.7215   -0.0369 N.2       1 <0>        -0.4686
     16 C10        -0.2703   -7.6320   -0.0334 C.2       1 <0>         0.1044
     17 C11        -1.5829   -7.2327   -0.0245 C.2       1 <0>        -0.1795
     18 S1         -1.3894   -5.4551   -0.0134 S.3       1 <0>        -0.0057
     19 C12         0.0728   -9.0752   -0.0395 C.ar      1 <0>        -0.0074
     20 C13        -0.9384  -10.0343   -0.0421 C.ar      1 <0>        -0.0995
     21 C14        -0.6139  -11.3756   -0.0477 C.ar      1 <0>        -0.0899
     22 C15         0.7132  -11.7690   -0.0504 C.ar      1 <0>        -0.0868
     23 C16         1.7212  -10.8204   -0.0478 C.ar      1 <0>        -0.0919
     24 C17         1.4075   -9.4766   -0.0485 C.ar      1 <0>        -0.0801
     25 Br1         1.1505  -13.6087   -0.0568 Br        1 <0>        -0.0492
     26 H2         -0.9602    1.8992    0.0259 H         1 <0>         0.1339
     27 H3          1.1463    3.1687    0.0077 H         1 <0>         0.1352
     28 H4          3.3044    2.0014   -0.0191 H         1 <0>         0.1307
     29 H5         -0.9243   -0.5593    0.0082 H         1 <0>         0.1355
     30 H6          3.9514   -3.5816   -0.9398 H         1 <0>         0.4156
     31 H7         -2.4841   -7.8278   -0.0210 H         1 <0>         0.2024
     32 H8         -1.9742   -9.7284   -0.0393 H         1 <0>         0.1350
     33 H9         -1.3967  -12.1196   -0.0497 H         1 <0>         0.1373
     34 H10         2.7551  -11.1326   -0.0499 H         1 <0>         0.1360
     35 H11         2.1947   -8.7373   -0.0510 H         1 <0>         0.1435
@<TRIPOS>BOND
     1    1    6 ar
     2    1    2 ar
     3    1   26 1
     4    2    3 ar
     5    2   27 1
     6    3    4 ar
     7    3   28 1
     8    4    9 1
     9    4    5 ar
    10    5    6 ar
    11    5    7 1
    12    6   29 1
    13    7    8 2
    14    7   12 1
    15    8    9 1
    16    8   11 1
    17    9   10 1
    18   11   30 1
    19   12   13 2
    20   13   14 1
    21   14   18 1
    22   14   15 2
    23   15   16 1
    24   16   17 2
    25   16   19 1
    26   17   18 1
    27   17   31 1
    28   19   24 ar
    29   19   20 ar
    30   20   21 ar
    31   20   32 1
    32   21   22 ar
    33   21   33 1
    34   22   23 ar
    35   22   25 1
    36   23   24 ar
    37   23   34 1
    38   24   35 1
@<TRIPOS>MOLECULE
ZINC12882775
   63    68     0     0     0
SMALL
USER_CHARGES
(1S,3S,3aR,6aS)-1-benzyl-6'-chloro-7'-methyl-5-phenethyl-spiro[1,2,3a,6a-tetrahydropyrrolo[4,3-c]pyrrole-3,3'-indoline]-2',4,6-trione
@<TRIPOS>ATOM
      1 C1         -0.3455    0.3831    5.7941 C.3       1 <0>        -0.1309
      2 C2          0.1875    1.2101    4.6526 C.ar      1 <0>        -0.0814
      3 C3          1.2949    2.0130    4.8424 C.ar      1 <0>         0.0272
      4 C4          1.7910    2.7760    3.8001 C.ar      1 <0>        -0.1090
      5 C5          1.1747    2.7335    2.5618 C.ar      1 <0>        -0.0114
      6 C6          0.0712    1.9335    2.3683 C.ar      1 <0>        -0.2039
      7 C7         -0.4382    1.1625    3.4097 C.ar      1 <0>         0.1830
      8 N1         -1.5539    0.4428    2.9764 N.am      1 <0>        -0.6342
      9 C8         -1.8392    0.6788    1.6812 C.2       1 <0>         0.5390
     10 O1         -2.7480    0.1950    1.0401 O.2       1 <0>        -0.4356
     11 C9         -0.8124    1.6593    1.1846 C.3       1 <0>         0.0984
     12 C10        -0.0127    1.0858    0.0080 C.3       1 <0>        -0.1200
     13 H1          0.0021   -0.0041    0.0020 H         1 <0>         0.1794
     14 C11        -0.6725    1.6880   -1.2638 C.3       1 <0>        -0.1337
     15 H2         -1.0070    0.9258   -1.9675 H         1 <0>         0.1862
     16 C12        -1.8229    2.5698   -0.7341 C.3       1 <0>         0.0446
     17 H3         -2.7610    2.0148   -0.7427 H         1 <0>         0.1770
     18 C13        -1.9500    3.8411   -1.5758 C.3       1 <0>        -0.0924
     19 C14        -3.1528    4.6268   -1.1206 C.ar      1 <0>        -0.1264
     20 C15        -4.3862    4.4018   -1.7028 C.ar      1 <0>        -0.1000
     21 C16        -5.4903    5.1194   -1.2822 C.ar      1 <0>        -0.1061
     22 C17        -5.3590    6.0688   -0.2861 C.ar      1 <0>        -0.1022
     23 C18        -4.1247    6.2972    0.2928 C.ar      1 <0>        -0.1088
     24 C19        -3.0215    5.5765   -0.1248 C.ar      1 <0>        -0.1353
     25 C20         0.4126    2.5718   -1.8351 C.2       1 <0>         0.5180
     26 O2          0.3123    3.2442   -2.8388 O.2       1 <0>        -0.4280
     27 N2          1.5013    2.4959   -1.0609 N.am      1 <0>        -0.5683
     28 C21         1.3747    1.6881   -0.0020 C.2       1 <0>         0.5162
     29 O3          2.2380    1.4719    0.8212 O.2       1 <0>        -0.4160
     30 C22         2.7314    3.2376   -1.3489 C.3       1 <0>         0.1004
     31 C23         3.6433    2.3880   -2.2364 C.3       1 <0>        -0.0917
     32 C24         4.9087    3.1510   -2.5326 C.ar      1 <0>        -0.0961
     33 C25         4.9795    3.9662   -3.6468 C.ar      1 <0>        -0.1118
     34 C26         6.1387    4.6694   -3.9161 C.ar      1 <0>        -0.1159
     35 C27         7.2302    4.5504   -3.0763 C.ar      1 <0>        -0.1129
     36 C28         7.1612    3.7311   -1.9650 C.ar      1 <0>        -0.1161
     37 C29         6.0005    3.0312   -1.6933 C.ar      1 <0>        -0.1121
     38 Cl1         2.0686    2.0647    6.3956 Cl        1 <0>        -0.0181
     39 H4         -1.0854    0.9615    6.3473 H         1 <0>         0.0894
     40 H5         -0.8106   -0.5212    5.4016 H         1 <0>         0.0739
     41 H6          0.4741    0.1108    6.4592 H         1 <0>         0.0906
     42 H7          2.6572    3.4029    3.9525 H         1 <0>         0.1575
     43 H8          1.5599    3.3280    1.7465 H         1 <0>         0.1373
     44 H9         -2.0643   -0.1572    3.5424 H         1 <0>         0.4393
     45 H10        -1.0527    4.4480   -1.4552 H         1 <0>         0.0976
     46 H11        -2.0681    3.5717   -2.6254 H         1 <0>         0.1396
     47 H12        -4.4879    3.6629   -2.4839 H         1 <0>         0.1317
     48 H13        -6.4547    4.9407   -1.7342 H         1 <0>         0.1331
     49 H14        -6.2210    6.6319    0.0402 H         1 <0>         0.1319
     50 H15        -4.0222    7.0390    1.0711 H         1 <0>         0.1309
     51 H16        -2.0570    5.7553    0.3272 H         1 <0>         0.1169
     52 H17         2.4840    4.1653   -1.8649 H         1 <0>         0.1071
     53 H18         3.2445    3.4670   -0.4150 H         1 <0>         0.1052
     54 H19         3.8908    1.4603   -1.7204 H         1 <0>         0.0808
     55 H20         3.1303    2.1586   -3.1703 H         1 <0>         0.0811
     56 H21         4.1279    4.0563   -4.3049 H         1 <0>         0.1225
     57 H22         6.1925    5.3098   -4.7841 H         1 <0>         0.1260
     58 H23         8.1368    5.0978   -3.2882 H         1 <0>         0.1259
     59 H24         8.0140    3.6381   -1.3089 H         1 <0>         0.1258
     60 H25         5.9466    2.3911   -0.8251 H         1 <0>         0.1221
     61 N3         -1.4286    2.8783    0.6431 N.4       1 <0>        -0.4990
     62 H26        -0.7534    3.6517    0.6539 H         1 <0>         0.4345
     63 H27        -2.2528    3.1357    1.1987 H         1 <0>         0.4469
@<TRIPOS>BOND
     1    1    2 1
     2    1   39 1
     3    1   40 1
     4    1   41 1
     5    2    7 ar
     6    2    3 ar
     7    3    4 ar
     8    3   38 1
     9    4    5 ar
    10    4   42 1
    11    5    6 ar
    12    5   43 1
    13    6   11 1
    14    6    7 ar
    15    7    8 1
    16    8    9 am
    17    8   44 1
    18    9   10 2
    19    9   11 1
    20   11   12 1
    21   11   61 1
    22   12   13 1
    23   12   28 1
    24   12   14 1
    25   14   15 1
    26   14   16 1
    27   14   25 1
    28   16   17 1
    29   16   18 1
    30   16   61 1
    31   18   19 1
    32   18   45 1
    33   18   46 1
    34   19   24 ar
    35   19   20 ar
    36   20   21 ar
    37   20   47 1
    38   21   22 ar
    39   21   48 1
    40   22   23 ar
    41   22   49 1
    42   23   24 ar
    43   23   50 1
    44   24   51 1
    45   25   26 2
    46   25   27 am
    47   27   28 am
    48   27   30 1
    49   28   29 2
    50   30   31 1
    51   30   52 1
    52   30   53 1
    53   31   32 1
    54   31   54 1
    55   31   55 1
    56   32   37 ar
    57   32   33 ar
    58   33   34 ar
    59   33   56 1
    60   34   35 ar
    61   34   57 1
    62   35   36 ar
    63   35   58 1
    64   36   37 ar
    65   36   59 1
    66   37   60 1
    67   61   62 1
    68   61   63 1
@<TRIPOS>MOLECULE
ZINC33014179
   60    63     0     0     0
SMALL
USER_CHARGES
4-[2-methyl-6-(4-methylanilino)pyrimidin-4-yl]-N-[3-(trifluoromethyl)phenyl]piperazine-1-carboxamide
@<TRIPOS>ATOM
      1 C1          8.5121    1.6644    9.6754 C.3       1 <0>        -0.1292
      2 C2          7.7252    2.8959   10.0431 C.ar      1 <0>        -0.0694
      3 C3          8.1428    4.1384    9.6026 C.ar      1 <0>        -0.0903
      4 C4          7.4240    5.2691    9.9377 C.ar      1 <0>        -0.1170
      5 C5          6.2805    5.1571   10.7183 C.ar      1 <0>         0.1126
      6 C6          5.8667    3.9081   11.1635 C.ar      1 <0>        -0.1442
      7 C7          6.5869    2.7809   10.8200 C.ar      1 <0>        -0.0917
      8 N1          5.5509    6.2995   11.0597 N.pl3     1 <0>        -0.6389
      9 C8          4.1737    6.2241   11.2093 C.ar      1 <0>         0.4833
     10 C9          3.4800    5.0897   10.7984 C.ar      1 <0>        -0.2911
     11 C10         2.0989    5.0652   10.9660 C.ar      1 <0>         0.4353
     12 N2          1.4962    6.1165   11.5187 N.ar      1 <0>        -0.5330
     13 C11         2.1890    7.1702   11.8995 C.ar      1 <0>         0.4463
     14 N3          3.4968    7.2338   11.7533 N.ar      1 <0>        -0.5761
     15 C12         1.4646    8.3370   12.5198 C.3       1 <0>        -0.1269
     16 N4          1.3618    3.9604   10.5687 N.pl3     1 <0>        -0.4555
     17 C13        -0.0676    4.1535   10.8469 C.3       1 <0>         0.0381
     18 C14        -0.8205    2.8491   10.5638 C.3       1 <0>         0.1085
     19 N5         -0.5065    2.4164    9.1936 N.am      1 <0>        -0.6320
     20 C15         0.9075    2.3255    8.7994 C.3       1 <0>         0.1296
     21 C16         1.5922    3.6561    9.1501 C.3       1 <0>         0.0395
     22 C17        -1.4884    2.1061    8.3241 C.2       1 <0>         0.7148
     23 O1         -1.2113    1.6477    7.2326 O.2       1 <0>        -0.5609
     24 N6         -2.7774    2.3039    8.6645 N.am      1 <0>        -0.6922
     25 C18        -3.8006    1.8251    7.8386 C.ar      1 <0>         0.1633
     26 C19        -3.5712    1.6427    6.4810 C.ar      1 <0>        -0.1073
     27 C20        -4.5828    1.1696    5.6687 C.ar      1 <0>        -0.0966
     28 C21        -5.8218    0.8726    6.2067 C.ar      1 <0>        -0.0875
     29 C22        -6.0550    1.0580    7.5568 C.ar      1 <0>        -0.1591
     30 C23        -5.0472    1.5309    8.3747 C.ar      1 <0>        -0.1055
     31 C24        -7.4081    0.7380    8.1379 C.3       1 <0>         0.5093
     32 F1         -8.2192    1.8767    8.0856 F         1 <0>        -0.1747
     33 F2         -7.2600    0.3317    9.4684 F         1 <0>        -0.1773
     34 F3         -8.0013   -0.2914    7.3992 F         1 <0>        -0.1732
     35 H1          9.3768    1.9522    9.0594 H         1 <0>         0.0736
     36 H2          7.8701    0.9752    9.1072 H         1 <0>         0.0796
     37 H3          8.8637    1.1669   10.5913 H         1 <0>         0.0796
     38 H4          9.0322    4.2248    8.9960 H         1 <0>         0.1395
     39 H5          7.7505    6.2391    9.5930 H         1 <0>         0.1352
     40 H6          4.9804    3.8181   11.7740 H         1 <0>         0.1342
     41 H7          6.2633    1.8090   11.1621 H         1 <0>         0.1383
     42 H8          6.0687    7.2583   11.2098 H         1 <0>         0.4581
     43 H9          3.9996    4.2518   10.3576 H         1 <0>         0.1925
     44 H10         2.1891    9.1238   12.7766 H         1 <0>         0.1030
     45 H11         0.9463    8.0042   13.4312 H         1 <0>         0.1286
     46 H12         0.7297    8.7346   11.8044 H         1 <0>         0.1272
     47 H13        -0.2011    4.4337   11.9022 H         1 <0>         0.1148
     48 H14        -0.4618    4.9531   10.2025 H         1 <0>         0.0754
     49 H15        -0.5031    2.0792   11.2825 H         1 <0>         0.0922
     50 H16        -1.9023    3.0209   10.6644 H         1 <0>         0.0966
     51 H17         1.3875    1.4990    9.3439 H         1 <0>         0.0890
     52 H18         0.9753    2.1399    7.7173 H         1 <0>         0.1189
     53 H19         1.1724    4.4615    8.5295 H         1 <0>         0.0739
     54 H20         2.6732    3.5749    8.9634 H         1 <0>         0.1094
     55 H21        -3.0251    2.8417    9.5915 H         1 <0>         0.4292
     56 H22        -2.6025    1.8703    6.0611 H         1 <0>         0.1656
     57 H23        -4.4050    1.0273    4.6130 H         1 <0>         0.1405
     58 H24        -6.6101    0.4985    5.5702 H         1 <0>         0.1391
     59 H25        -5.2288    1.6720    9.4299 H         1 <0>         0.1376
     60 H26         4.0295    8.1363   12.0875 H         1 <0>         0.4774
@<TRIPOS>BOND
     1    1    2 1
     2    1   35 1
     3    1   36 1
     4    1   37 1
     5    2    7 ar
     6    2    3 ar
     7    3    4 ar
     8    3   38 1
     9    4    5 ar
    10    4   39 1
    11    5    6 ar
    12    5    8 1
    13    6    7 ar
    14    6   40 1
    15    7   41 1
    16    8    9 1
    17    8   42 1
    18    9   14 ar
    19    9   10 ar
    20   10   11 ar
    21   10   43 1
    22   11   12 ar
    23   11   16 1
    24   12   13 ar
    25   13   14 ar
    26   13   15 1
    27   14   60 1
    28   15   44 1
    29   15   45 1
    30   15   46 1
    31   16   21 1
    32   16   17 1
    33   17   18 1
    34   17   47 1
    35   17   48 1
    36   18   19 1
    37   18   49 1
    38   18   50 1
    39   19   20 1
    40   19   22 am
    41   20   21 1
    42   20   51 1
    43   20   52 1
    44   21   53 1
    45   21   54 1
    46   22   23 2
    47   22   24 am
    48   24   25 1
    49   24   55 1
    50   25   30 ar
    51   25   26 ar
    52   26   27 ar
    53   26   56 1
    54   27   28 ar
    55   27   57 1
    56   28   29 ar
    57   28   58 1
    58   29   30 ar
    59   29   31 1
    60   30   59 1
    61   31   32 1
    62   31   33 1
    63   31   34 1
@<TRIPOS>MOLECULE
ZINC39623760
   69    73     0     0     0
SMALL
USER_CHARGES

@<TRIPOS>ATOM
      1 C1          1.5884   -7.0769   -2.0123 C.ar      1 <0>        -0.1202
      2 C2          1.1254   -5.9214   -1.4112 C.ar      1 <0>        -0.1156
      3 C3          2.0166   -4.9362   -1.0293 C.ar      1 <0>        -0.1166
      4 C4          3.3708   -5.1066   -1.2481 C.ar      1 <0>        -0.0888
      5 C5          3.8339   -6.2625   -1.8484 C.ar      1 <0>        -0.1189
      6 C6          2.9426   -7.2471   -2.2316 C.ar      1 <0>        -0.1178
      7 C7          4.3423   -4.0320   -0.8327 C.3       1 <0>        -0.0774
      8 C8          4.8025   -4.2882    0.6038 C.3       1 <0>        -0.1239
      9 C9          5.7889   -3.1972    1.0256 C.3       1 <0>         0.1144
     10 N1          6.2295   -3.4425    2.4010 N.am      1 <0>        -0.7281
     11 C10         7.1061   -2.6035    2.9876 C.2       1 <0>         0.5192
     12 O1          7.5302   -1.6454    2.3767 O.2       1 <0>        -0.5179
     13 C11         7.5594   -2.8558    4.4025 C.3       1 <0>        -0.1137
     14 H1          6.7795   -3.3701    4.9640 H         1 <0>         0.1117
     15 C12         7.9313   -1.5249    5.0937 C.3       1 <0>         0.1086
     16 N2          9.1057   -1.8553    5.9349 N.am      1 <0>        -0.6178
     17 C13         9.9046   -2.7870    5.1032 C.3       1 <0>         0.1107
     18 C14         8.8572   -3.6809    4.4099 C.3       1 <0>        -0.0727
     19 C15         9.2933   -3.9930    2.9816 C.3       1 <0>        -0.1469
     20 C16        10.5528   -4.8632    3.0157 C.3       1 <0>        -0.0076
     21 N3         10.2719   -6.1055    3.7454 N.4       1 <0>        -0.5044
     22 C17         9.9438   -5.8017    5.1436 C.3       1 <0>        -0.0110
     23 C18         8.6585   -4.9712    5.1994 C.3       1 <0>        -0.1343
     24 C19         9.3844   -1.4099    7.1760 C.2       1 <0>         0.6349
     25 O2         10.3986   -1.7762    7.7407 O.2       1 <0>        -0.5109
     26 C20         8.4667   -0.4850    7.8454 C.2       1 <0>        -0.0924
     27 C21         8.6323    0.0492    9.1047 C.2       1 <0>        -0.0966
     28 C22         7.5282    0.8738    9.3416 C.2       1 <0>        -0.1925
     29 C23         6.7365    0.8142    8.2304 C.2       1 <0>         0.0694
     30 O3          7.3142   -0.0029    7.3338 O.3       1 <0>        -0.1512
     31 C24         5.4605    1.5328    8.0430 C.ar      1 <0>        -0.0744
     32 C25         4.4715    1.4751    9.0274 C.ar      1 <0>        -0.0587
     33 C26         3.2819    2.1486    8.8461 C.ar      1 <0>        -0.1269
     34 C27         3.0653    2.8815    7.6919 C.ar      1 <0>        -0.0698
     35 C28         4.0384    2.9442    6.7115 C.ar      1 <0>        -0.1530
     36 C29         5.2385    2.2795    6.8816 C.ar      1 <0>         0.1246
     37 F1          6.1914    2.3460    5.9262 F         1 <0>        -0.1288
     38 H2          0.8925   -7.8487   -2.3066 H         1 <0>         0.1237
     39 H3          0.0674   -5.7883   -1.2402 H         1 <0>         0.1241
     40 H4          1.6548   -4.0331   -0.5603 H         1 <0>         0.1216
     41 H5          4.8919   -6.3955   -2.0197 H         1 <0>         0.1189
     42 H6          3.3043   -8.1500   -2.7009 H         1 <0>         0.1227
     43 H7          5.2053   -4.0453   -1.4985 H         1 <0>         0.0763
     44 H8          3.8542   -3.0591   -0.8898 H         1 <0>         0.0783
     45 H9          3.9396   -4.2750    1.2696 H         1 <0>         0.0734
     46 H10         5.2906   -5.2611    0.6609 H         1 <0>         0.0690
     47 H11         6.6518   -3.2105    0.3598 H         1 <0>         0.0724
     48 H12         5.3008   -2.2243    0.9685 H         1 <0>         0.0749
     49 H13         5.8903   -4.2088    2.8896 H         1 <0>         0.4005
     50 H14         8.1956   -0.7719    4.3511 H         1 <0>         0.1026
     51 H15         7.1060   -1.1751    5.7138 H         1 <0>         0.1025
     52 H16        10.4843   -2.2349    4.3634 H         1 <0>         0.0888
     53 H17        10.5617   -3.3891    5.7307 H         1 <0>         0.0924
     54 H18         8.4954   -4.5277    2.4662 H         1 <0>         0.0976
     55 H19         9.5078   -3.0629    2.4552 H         1 <0>         0.1267
     56 H20        10.8571   -5.1016    1.9966 H         1 <0>         0.1397
     57 H21        11.3550   -4.3214    3.5166 H         1 <0>         0.1340
     58 H22         9.4924   -6.5788    3.3136 H         1 <0>         0.4275
     59 H23         9.7992   -6.7319    5.6930 H         1 <0>         0.1404
     60 H24        10.7605   -5.2374    5.5938 H         1 <0>         0.1347
     61 H25         8.4254   -4.7308    6.2367 H         1 <0>         0.1183
     62 H26         7.8377   -5.5413    4.7642 H         1 <0>         0.0970
     63 H27         9.4559   -0.1340    9.7789 H         1 <0>         0.1679
     64 H28         7.3371    1.4492   10.2354 H         1 <0>         0.1656
     65 H29         4.6378    0.9037    9.9286 H         1 <0>         0.1416
     66 H30         2.5166    2.1039    9.6068 H         1 <0>         0.1415
     67 H31         2.1314    3.4066    7.5562 H         1 <0>         0.1419
     68 H32         3.8623    3.5173    5.8132 H         1 <0>         0.1445
     69 H33        11.0841   -6.7034    3.7142 H         1 <0>         0.4345
@<TRIPOS>BOND
     1    1    6 ar
     2    1    2 ar
     3    1   38 1
     4    2    3 ar
     5    2   39 1
     6    3    4 ar
     7    3   40 1
     8    4    5 ar
     9    4    7 1
    10    5    6 ar
    11    5   41 1
    12    6   42 1
    13    7    8 1
    14    7   43 1
    15    7   44 1
    16    8    9 1
    17    8   45 1
    18    8   46 1
    19    9   10 1
    20    9   47 1
    21    9   48 1
    22   10   11 am
    23   10   49 1
    24   11   12 2
    25   11   13 1
    26   13   14 1
    27   13   18 1
    28   13   15 1
    29   15   16 1
    30   15   50 1
    31   15   51 1
    32   16   17 1
    33   16   24 am
    34   17   18 1
    35   17   52 1
    36   17   53 1
    37   18   23 1
    38   18   19 1
    39   19   20 1
    40   19   54 1
    41   19   55 1
    42   20   21 1
    43   20   56 1
    44   20   57 1
    45   21   22 1
    46   21   58 1
    47   21   69 1
    48   22   23 1
    49   22   59 1
    50   22   60 1
    51   23   61 1
    52   23   62 1
    53   24   25 2
    54   24   26 1
    55   26   30 1
    56   26   27 2
    57   27   28 1
    58   27   63 1
    59   28   29 2
    60   28   64 1
    61   29   30 1
    62   29   31 1
    63   31   36 ar
    64   31   32 ar
    65   32   33 ar
    66   32   65 1
    67   33   34 ar
    68   33   66 1
    69   34   35 ar
    70   34   67 1
    71   35   36 ar
    72   35   68 1
    73   36   37 1
@<TRIPOS>MOLECULE
ZINC39669184
   71    76     0     0     0
SMALL
USER_CHARGES

@<TRIPOS>ATOM
      1 C1          1.4322    4.4915    0.3876 C.ar      1 <0>        -0.1062
      2 C2          2.2567    4.2010    1.4587 C.ar      1 <0>        -0.1193
      3 C3          3.4548    3.5485    1.2477 C.ar      1 <0>        -0.1109
      4 C4          3.8354    3.1818   -0.0341 C.ar      1 <0>        -0.1256
      5 C5          3.0108    3.4682   -1.1017 C.ar      1 <0>        -0.0653
      6 C6          1.8094    4.1257   -0.8893 C.ar      1 <0>        -0.1154
      7 C7          3.3834    3.0742   -2.5082 C.3       1 <0>        -0.1206
      8 C8          4.8783    2.7571   -2.5778 C.3       1 <0>         0.0616
      9 O1          5.2026    1.8598   -1.5100 O.3       1 <0>        -0.3701
     10 C9          5.1533    2.4771   -0.2241 C.3       1 <0>         0.1268
     11 H1          5.9647    3.1999   -0.1394 H         1 <0>         0.0732
     12 C10         5.3167    1.4078    0.8579 C.3       1 <0>         0.1269
     13 N1          6.6464    0.8024    0.7494 N.am      1 <0>        -0.7214
     14 C11         7.0157   -0.1707    1.6056 C.2       1 <0>         0.5204
     15 O2          6.2472   -0.5453    2.4659 O.2       1 <0>        -0.5199
     16 C12         8.3835   -0.7934    1.4940 C.3       1 <0>        -0.1131
     17 H2          8.7304   -0.7630    0.4612 H         1 <0>         0.1132
     18 C13         8.3553   -2.2498    2.0094 C.3       1 <0>         0.1082
     19 N2          9.6521   -2.4261    2.7046 N.am      1 <0>        -0.6181
     20 C14         9.8714   -1.1394    3.4077 C.3       1 <0>         0.1109
     21 C15         9.3789   -0.0677    2.4148 C.3       1 <0>        -0.0728
     22 C16         8.6790    1.0624    3.1635 C.3       1 <0>        -0.1474
     23 C17         9.7012    1.8059    4.0278 C.3       1 <0>        -0.0078
     24 N3         10.7674    2.3440    3.1744 N.4       1 <0>        -0.5045
     25 C18        11.4958    1.2444    2.5301 C.3       1 <0>        -0.0111
     26 C19        10.5495    0.4772    1.6023 C.3       1 <0>        -0.1346
     27 C20        10.4517   -3.5109    2.6986 C.2       1 <0>         0.6347
     28 O3         11.4950   -3.5015    3.3257 O.2       1 <0>        -0.5111
     29 C21        10.0655   -4.7013    1.9374 C.2       1 <0>        -0.0945
     30 C22        10.7835   -5.8741    1.8504 C.2       1 <0>        -0.0933
     31 C23        10.0515   -6.7352    1.0267 C.2       1 <0>        -0.2013
     32 C24         8.9251   -6.0643    0.6446 C.2       1 <0>         0.0778
     33 O4          8.9412   -4.8427    1.2037 O.3       1 <0>        -0.1570
     34 C25         7.8627   -6.5955   -0.2326 C.ar      1 <0>        -0.0478
     35 C26         7.9585   -7.8920   -0.7433 C.ar      1 <0>        -0.0575
     36 C27         6.9633   -8.3829   -1.5616 C.ar      1 <0>        -0.1485
     37 C28         5.8693   -7.5925   -1.8776 C.ar      1 <0>         0.1197
     38 C29         5.7692   -6.3049   -1.3740 C.ar      1 <0>        -0.1516
     39 C30         6.7556   -5.8055   -0.5501 C.ar      1 <0>        -0.0660
     40 F1          4.8971   -8.0787   -2.6799 F         1 <0>        -0.1301
     41 H3          0.4930    4.9994    0.5498 H         1 <0>         0.1283
     42 H4          1.9640    4.4843    2.4590 H         1 <0>         0.1271
     43 H5          4.0989    3.3230    2.0848 H         1 <0>         0.1225
     44 H6          1.1656    4.3533   -1.7261 H         1 <0>         0.1275
     45 H7          2.8121    2.1934   -2.8013 H         1 <0>         0.0902
     46 H8          3.1552    3.8957   -3.1872 H         1 <0>         0.0902
     47 H9          5.1088    2.2872   -3.5339 H         1 <0>         0.1060
     48 H10         5.4531    3.6770   -2.4706 H         1 <0>         0.0576
     49 H11         5.2049    1.8654    1.8409 H         1 <0>         0.0894
     50 H12         4.5555    0.6387    0.7266 H         1 <0>         0.0852
     51 H13         7.2610    1.1021    0.0614 H         1 <0>         0.4039
     52 H14         7.5286   -2.3905    2.7057 H         1 <0>         0.1026
     53 H15         8.2735   -2.9465    1.1752 H         1 <0>         0.1027
     54 H16         9.2875   -1.1041    4.3274 H         1 <0>         0.0888
     55 H17        10.9307   -0.9991    3.6228 H         1 <0>         0.0922
     56 H18         8.2366    1.7544    2.4468 H         1 <0>         0.0972
     57 H19         7.8973    0.6479    3.8000 H         1 <0>         0.1272
     58 H20         9.2072    2.6245    4.5512 H         1 <0>         0.1396
     59 H21        10.1311    1.1172    4.7552 H         1 <0>         0.1341
     60 H22        10.3623    2.9378    2.4664 H         1 <0>         0.4274
     61 H23        12.3247    1.6491    1.9493 H         1 <0>         0.1403
     62 H24        11.8829    0.5690    3.2930 H         1 <0>         0.1347
     63 H25        11.0865   -0.3499    1.1380 H         1 <0>         0.1187
     64 H26        10.1748    1.1481    0.8292 H         1 <0>         0.0973
     65 H27        11.7293   -6.0872    2.3262 H         1 <0>         0.1673
     66 H28        10.3255   -7.7413    0.7457 H         1 <0>         0.1649
     67 H29         8.8105   -8.5086   -0.4980 H         1 <0>         0.1434
     68 H30         7.0364   -9.3852   -1.9574 H         1 <0>         0.1480
     69 H31         4.9150   -5.6932   -1.6241 H         1 <0>         0.1441
     70 H32         6.6743   -4.8039   -0.1544 H         1 <0>         0.1365
     71 H33        11.4066    2.8846    3.7376 H         1 <0>         0.4345
@<TRIPOS>BOND
     1    1    6 ar
     2    1    2 ar
     3    1   41 1
     4    2    3 ar
     5    2   42 1
     6    3    4 ar
     7    3   43 1
     8    4   10 1
     9    4    5 ar
    10    5    6 ar
    11    5    7 1
    12    6   44 1
    13    7    8 1
    14    7   45 1
    15    7   46 1
    16    8    9 1
    17    8   47 1
    18    8   48 1
    19    9   10 1
    20   10   11 1
    21   10   12 1
    22   12   13 1
    23   12   49 1
    24   12   50 1
    25   13   14 am
    26   13   51 1
    27   14   15 2
    28   14   16 1
    29   16   17 1
    30   16   21 1
    31   16   18 1
    32   18   19 1
    33   18   52 1
    34   18   53 1
    35   19   20 1
    36   19   27 am
    37   20   21 1
    38   20   54 1
    39   20   55 1
    40   21   26 1
    41   21   22 1
    42   22   23 1
    43   22   56 1
    44   22   57 1
    45   23   24 1
    46   23   58 1
    47   23   59 1
    48   24   25 1
    49   24   60 1
    50   24   71 1
    51   25   26 1
    52   25   61 1
    53   25   62 1
    54   26   63 1
    55   26   64 1
    56   27   28 2
    57   27   29 1
    58   29   33 1
    59   29   30 2
    60   30   31 1
    61   30   65 1
    62   31   32 2
    63   31   66 1
    64   32   33 1
    65   32   34 1
    66   34   39 ar
    67   34   35 ar
    68   35   36 ar
    69   35   67 1
    70   36   37 ar
    71   36   68 1
    72   37   38 ar
    73   37   40 1
    74   38   39 ar
    75   38   69 1
    76   39   70 1
@<TRIPOS>MOLECULE
ZINC63383531
   60    65     0     0     0
SMALL
USER_CHARGES

@<TRIPOS>ATOM
      1 C1         -0.0187    1.5258    0.0104 C.3       1 <0>        -0.1540
      2 C2          0.0021   -0.0041    0.0020 C.3       1 <0>        -0.1205
      3 C3         -1.4333   -0.5336    0.0129 C.3       1 <0>        -0.1351
      4 C4         -1.4126   -2.0635    0.0045 C.3       1 <0>         0.0972
      5 N1         -2.7870   -2.5706    0.0149 N.am      1 <0>        -0.5654
      6 C5         -3.4568   -2.8216    1.1457 C.2       1 <0>         0.5261
      7 O1         -3.0212   -2.6688    2.2666 O.2       1 <0>        -0.4671
      8 C6         -4.8415   -3.3247    0.8076 C.3       1 <0>        -0.1530
      9 H1         -5.6293   -2.7009    1.2300 H         1 <0>         0.1582
     10 C7         -4.9652   -4.8035    1.2307 C.3       1 <0>         0.0883
     11 H2         -6.0076   -5.0565    1.4248 H         1 <0>         0.1300
     12 N2         -4.4528   -5.5771    0.0687 N.3       1 <0>        -0.6244
     13 C8         -4.9529   -4.8390   -1.1058 C.3       1 <0>         0.1292
     14 C9         -4.8502   -3.3356   -0.7466 C.3       1 <0>        -0.1338
     15 H3         -5.6569   -2.7371   -1.1698 H         1 <0>         0.1563
     16 C10        -3.4762   -2.8149   -1.1055 C.2       1 <0>         0.5219
     17 O2         -3.0631   -2.6470   -2.2328 O.2       1 <0>        -0.4294
     18 C11        -6.3658   -5.2248   -1.4400 C.ar      1 <0>        -0.1177
     19 C12        -7.5524   -5.1758   -0.7425 C.ar      1 <0>        -0.0507
     20 C13        -8.7229   -5.6159   -1.3344 C.ar      1 <0>        -0.1243
     21 C14        -8.6988   -6.1042   -2.6281 C.ar      1 <0>        -0.0619
     22 C15        -7.5122   -6.1551   -3.3315 C.ar      1 <0>        -0.0560
     23 C16        -6.3285   -5.7143   -2.7418 C.ar      1 <0>         0.1683
     24 N3         -5.0239   -5.6657   -3.2392 N.am      1 <0>        -0.6493
     25 C17        -4.1558   -5.1647   -2.3394 C.2       1 <0>         0.5387
     26 O3         -2.9632   -5.0064   -2.4939 O.2       1 <0>        -0.4572
     27 Cl1        -7.4938   -6.7708   -4.9545 Cl        1 <0>        -0.0496
     28 C18        -4.1126   -5.0752    2.4717 C.3       1 <0>        -0.0969
     29 C19        -4.3426   -6.4892    2.9395 C.2       1 <0>         0.0753
     30 C20        -3.5966   -7.5766    2.6389 C.ar      1 <0>        -0.1611
     31 C21        -2.3946   -7.7616    1.8171 C.ar      1 <0>        -0.0058
     32 C22        -1.8631   -8.9999    1.7016 C.ar      1 <0>        -0.1522
     33 C23        -2.4303  -10.1084    2.3452 C.ar      1 <0>         0.0561
     34 C24        -3.5342  -10.0176    3.1169 C.ar      1 <0>        -0.2108
     35 C25        -4.1760   -8.7630    3.3085 C.ar      1 <0>         0.3303
     36 N4         -5.2388   -8.4223    3.9963 N.pl3     1 <0>        -0.5873
     37 C26        -5.4505   -6.9783    3.8454 C.3       1 <0>         0.0632
     38 H4          1.0039    1.9031    0.0027 H         1 <0>         0.0603
     39 H5         -0.5459    1.8868   -0.8726 H         1 <0>         0.0557
     40 H6         -0.5289    1.8773    0.9072 H         1 <0>         0.0551
     41 H7          0.5123   -0.3556   -0.8948 H         1 <0>         0.0673
     42 H8          0.5293   -0.3651    0.8851 H         1 <0>         0.0663
     43 H9         -1.9435   -0.1821    0.9097 H         1 <0>         0.0692
     44 H10        -1.9605   -0.1726   -0.8702 H         1 <0>         0.0696
     45 H11        -0.9024   -2.4150   -0.8923 H         1 <0>         0.1001
     46 H12        -0.8854   -2.4246    0.8875 H         1 <0>         0.0971
     47 H13        -3.4444   -5.6101    0.0726 H         1 <0>         0.3510
     48 H14        -7.5692   -4.7939    0.2676 H         1 <0>         0.1333
     49 H15        -9.6533   -5.5785   -0.7873 H         1 <0>         0.1457
     50 H16        -9.6126   -6.4477   -3.0901 H         1 <0>         0.1487
     51 H17        -4.7725   -5.9587   -4.1291 H         1 <0>         0.4254
     52 H18        -3.0593   -4.9408    2.2254 H         1 <0>         0.1110
     53 H19        -4.3921   -4.3805    3.2637 H         1 <0>         0.1385
     54 H20        -1.9416   -6.9215    1.3118 H         1 <0>         0.1522
     55 H21        -0.9787   -9.1383    1.0974 H         1 <0>         0.1563
     56 H22        -1.9653  -11.0748    2.2183 H         1 <0>         0.1599
     57 H23        -3.9323  -10.9025    3.5910 H         1 <0>         0.1597
     58 H24        -5.3888   -6.4841    4.8149 H         1 <0>         0.1739
     59 H25        -6.4214   -6.7889    3.3875 H         1 <0>         0.1729
     60 H26        -5.7906   -9.0236    4.5205 H         1 <0>         0.4552
@<TRIPOS>BOND
     1    1    2 1
     2    1   38 1
     3    1   39 1
     4    1   40 1
     5    2    3 1
     6    2   41 1
     7    2   42 1
     8    3    4 1
     9    3   43 1
    10    3   44 1
    11    4    5 1
    12    4   45 1
    13    4   46 1
    14    5   16 am
    15    5    6 am
    16    6    7 2
    17    6    8 1
    18    8    9 1
    19    8   14 1
    20    8   10 1
    21   10   11 1
    22   10   12 1
    23   10   28 1
    24   12   13 1
    25   12   47 1
    26   13   25 1
    27   13   14 1
    28   13   18 1
    29   14   15 1
    30   14   16 1
    31   16   17 2
    32   18   23 ar
    33   18   19 ar
    34   19   20 ar
    35   19   48 1
    36   20   21 ar
    37   20   49 1
    38   21   22 ar
    39   21   50 1
    40   22   23 ar
    41   22   27 1
    42   23   24 1
    43   24   25 am
    44   24   51 1
    45   25   26 2
    46   28   29 1
    47   28   52 1
    48   28   53 1
    49   29   37 1
    50   29   30 2
    51   30   35 ar
    52   30   31 ar
    53   31   32 ar
    54   31   54 1
    55   32   33 ar
    56   32   55 1
    57   33   34 ar
    58   33   56 1
    59   34   35 ar
    60   34   57 1
    61   35   36 2
    62   36   37 1
    63   36   60 1
    64   37   58 1
    65   37   59 1
@<TRIPOS>MOLECULE
ZINC10086681
   55    58     0     0     0
SMALL
USER_CHARGES
N'-(2,5-difluorophenyl)-N-[2-(1-naphthyl)-2-pyrrolidin-1-yl-ethyl]-oxamide
@<TRIPOS>ATOM
      1 C1         -0.9953    1.3805   -0.6309 C.ar      1 <0>        -0.1078
      2 C2          0.2944    0.8524   -0.6071 C.ar      1 <0>        -0.0814
      3 C3          1.3760    1.6532   -0.4048 C.ar      1 <0>        -0.1368
      4 C4          1.1930    3.0332   -0.2115 C.ar      1 <0>        -0.0230
      5 C5         -0.1190    3.5695   -0.2305 C.ar      1 <0>        -0.0498
      6 C6         -1.2113    2.7108   -0.4422 C.ar      1 <0>        -0.0917
      7 C7         -0.3021    4.9491   -0.0377 C.ar      1 <0>        -0.0589
      8 C8          0.7797    5.7503    0.1641 C.ar      1 <0>        -0.1267
      9 C9          2.0694    5.2233    0.1823 C.ar      1 <0>        -0.1198
     10 C10         2.2850    3.8917   -0.0004 C.ar      1 <0>        -0.1299
     11 C11         3.6877    3.3413    0.0228 C.3       1 <0>         0.0775
     12 H1          3.7602    2.5021   -0.6689 H         1 <0>         0.1558
     13 C12         4.0261    2.8669    1.4375 C.3       1 <0>         0.0999
     14 N1          5.4203    2.4192    1.4820 N.am      1 <0>        -0.7238
     15 C13         5.9727    2.0510    2.6549 C.2       1 <0>         0.5203
     16 O1          5.3152    2.0904    3.6742 O.2       1 <0>        -0.4812
     17 C14         7.3940    1.5946    2.7003 C.2       1 <0>         0.5110
     18 O2          8.0516    1.5553    1.6808 O.2       1 <0>        -0.4932
     19 N2          7.9465    1.2265    3.8732 N.am      1 <0>        -0.6324
     20 C15         9.3023    0.8901    3.9324 C.ar      1 <0>         0.1294
     21 C16        10.2128    1.5207    3.0948 C.ar      1 <0>        -0.1311
     22 C17        11.5540    1.1886    3.1589 C.ar      1 <0>         0.1154
     23 C18        11.9876    0.2214    4.0505 C.ar      1 <0>        -0.1267
     24 C19        11.0827   -0.4120    4.8821 C.ar      1 <0>        -0.0993
     25 C20         9.7411   -0.0812    4.8264 C.ar      1 <0>         0.0759
     26 F1          8.8577   -0.7003    5.6396 F         1 <0>        -0.1262
     27 F2         12.4413    1.8050    2.3477 F         1 <0>        -0.1255
     28 C21         4.1171    5.1511   -1.5483 C.3       1 <0>        -0.0326
     29 C22         4.9211    6.4744   -1.4931 C.3       1 <0>        -0.1443
     30 C23         5.0245    6.7531    0.0240 C.3       1 <0>        -0.1466
     31 C24         4.8128    5.3855    0.6995 C.3       1 <0>        -0.0354
     32 H2         -1.8361    0.7234   -0.7974 H         1 <0>         0.1352
     33 H3          0.4379   -0.2077   -0.7557 H         1 <0>         0.1334
     34 H4          2.3697    1.2304   -0.3926 H         1 <0>         0.1258
     35 H5         -2.2166    3.1053   -0.4595 H         1 <0>         0.1387
     36 H6         -1.2959    5.3716   -0.0492 H         1 <0>         0.1415
     37 H7          0.6362    6.8105    0.3120 H         1 <0>         0.1383
     38 H8          2.9106    5.8810    0.3444 H         1 <0>         0.1387
     39 H9          3.8858    3.6888    2.1396 H         1 <0>         0.1073
     40 H10         3.3701    2.0402    1.7101 H         1 <0>         0.1220
     41 H11         5.9458    2.3877    0.6673 H         1 <0>         0.4104
     42 H12         7.4034    1.1949    4.6764 H         1 <0>         0.4316
     43 H13         9.8746    2.2720    2.3965 H         1 <0>         0.1563
     44 H14        13.0348   -0.0388    4.0960 H         1 <0>         0.1552
     45 H15        11.4240   -1.1662    5.5757 H         1 <0>         0.1588
     46 H16         4.3205    4.6157   -2.4757 H         1 <0>         0.1402
     47 H17         3.0498    5.3446   -1.4407 H         1 <0>         0.1536
     48 H18         4.3802    7.2756   -1.9965 H         1 <0>         0.1185
     49 H19         5.9113    6.3426   -1.9294 H         1 <0>         0.1004
     50 H20         4.2480    7.4524    0.3339 H         1 <0>         0.1060
     51 H21         6.0103    7.1479    0.2698 H         1 <0>         0.1098
     52 H22         3.9232    5.4159    1.3286 H         1 <0>         0.1438
     53 H23         5.6841    5.1264    1.3010 H         1 <0>         0.1342
     54 N3          4.6400    4.4178   -0.3848 N.4       1 <0>        -0.3913
     55 H24         5.5456    3.9948   -0.6197 H         1 <0>         0.4305
@<TRIPOS>BOND
     1    1    6 ar
     2    1    2 ar
     3    1   32 1
     4    2    3 ar
     5    2   33 1
     6    3    4 ar
     7    3   34 1
     8    4   10 ar
     9    4    5 ar
    10    5    6 ar
    11    5    7 ar
    12    6   35 1
    13    7    8 ar
    14    7   36 1
    15    8    9 ar
    16    8   37 1
    17    9   10 ar
    18    9   38 1
    19   10   11 1
    20   11   12 1
    21   11   13 1
    22   11   54 1
    23   13   14 1
    24   13   39 1
    25   13   40 1
    26   14   15 am
    27   14   41 1
    28   15   16 2
    29   15   17 1
    30   17   18 2
    31   17   19 am
    32   19   20 1
    33   19   42 1
    34   20   25 ar
    35   20   21 ar
    36   21   22 ar
    37   21   43 1
    38   22   23 ar
    39   22   27 1
    40   23   24 ar
    41   23   44 1
    42   24   25 ar
    43   24   45 1
    44   25   26 1
    45   28   29 1
    46   28   46 1
    47   28   47 1
    48   28   54 1
    49   29   30 1
    50   29   48 1
    51   29   49 1
    52   30   31 1
    53   30   50 1
    54   30   51 1
    55   31   52 1
    56   31   53 1
    57   31   54 1
    58   54   55 1
@<TRIPOS>MOLECULE
ZINC36039451
   58    61     0     0     0
SMALL
USER_CHARGES

@<TRIPOS>ATOM
      1 C1         -0.0184    1.5028    0.0103 C.3       1 <0>        -0.1244
      2 C2          0.0021   -0.0041    0.0020 C.ar      1 <0>        -0.0635
      3 C3          0.0057   -0.6863   -1.2016 C.ar      1 <0>        -0.1133
      4 C4          0.0239   -2.0658   -1.2160 C.ar      1 <0>        -0.0999
      5 C5          0.0392   -2.7728   -0.0132 C.ar      1 <0>        -0.0471
      6 C6          0.0359   -2.0789    1.1973 C.ar      1 <0>        -0.0872
      7 C7          0.0229   -0.6992    1.1980 C.ar      1 <0>        -0.1118
      8 C8          0.0583   -4.2521   -0.0214 C.2       1 <0>         0.0875
      9 C9          0.0687   -5.0496    1.0614 C.2       1 <0>         0.0043
     10 N1          0.0856   -6.3597    0.6280 N.pl3     1 <0>        -0.3889
     11 C10         0.0853   -6.3563   -0.7323 C.2       1 <0>         0.6079
     12 N2          0.0625   -5.0640   -1.1493 N.pl3     1 <0>        -0.5743
     13 N3          0.0991   -7.4327   -1.5181 N.2       1 <0>        -0.6531
     14 C11         0.0971   -7.2909   -2.8384 C.2       1 <0>         0.4784
     15 O1          0.0826   -6.1788   -3.3306 O.2       1 <0>        -0.6078
     16 C12         0.1127   -8.5080   -3.7269 C.3       1 <0>         0.0011
     17 N4          0.1070   -8.0870   -5.1343 N.4       1 <0>        -0.4977
     18 C13         0.1222   -9.2734   -6.0004 C.3       1 <0>         0.0479
     19 C14         0.1164   -8.8415   -7.4441 C.ar      1 <0>        -0.1670
     20 C15        -1.0833   -8.6533   -8.1045 C.ar      1 <0>        -0.0919
     21 C16        -1.0887   -8.2571   -9.4288 C.ar      1 <0>        -0.1151
     22 C17         0.1058   -8.0486  -10.0927 C.ar      1 <0>        -0.0825
     23 C18         1.3055   -8.2358   -9.4321 C.ar      1 <0>        -0.1151
     24 C19         1.3108   -8.6279   -8.1065 C.ar      1 <0>        -0.0918
     25 C20         0.1008   -7.4958    1.4468 C.ar      1 <0>         0.1102
     26 C21         0.1233   -8.7627    0.8786 C.ar      1 <0>        -0.1157
     27 C22         0.1387   -9.8811    1.6887 C.ar      1 <0>        -0.1029
     28 C23         0.1318   -9.7404    3.0644 C.ar      1 <0>        -0.0750
     29 C24         0.1093   -8.4802    3.6333 C.ar      1 <0>        -0.0989
     30 C25         0.0991   -7.3577    2.8286 C.ar      1 <0>        -0.1185
     31 C26         0.1481  -10.9629    3.9454 C.3       1 <0>        -0.1224
     32 H1          1.0042    1.8801    0.0026 H         1 <0>         0.0783
     33 H2         -0.5455    1.8639   -0.8728 H         1 <0>         0.0716
     34 H3         -0.5286    1.8543    0.9071 H         1 <0>         0.0732
     35 H4         -0.0062   -0.1378   -2.1319 H         1 <0>         0.1310
     36 H5          0.0259   -2.5972   -2.1562 H         1 <0>         0.1181
     37 H6          0.0473   -2.6205    2.1316 H         1 <0>         0.1311
     38 H7          0.0248   -0.1608    2.1343 H         1 <0>         0.1349
     39 H8          0.0649   -4.7219    2.0905 H         1 <0>         0.2063
     40 H9          1.0103   -9.0929   -3.5262 H         1 <0>         0.1602
     41 H10        -0.7695   -9.1159   -3.5260 H         1 <0>         0.1602
     42 H11        -0.7239   -7.5456   -5.3200 H         1 <0>         0.4314
     43 H12         1.0199   -9.8583   -5.7997 H         1 <0>         0.1399
     44 H13        -0.7600   -9.8813   -5.7995 H         1 <0>         0.1399
     45 H14        -2.0165   -8.8163   -7.5858 H         1 <0>         0.1317
     46 H15        -2.0260   -8.1109   -9.9450 H         1 <0>         0.1361
     47 H16         0.1016   -7.7397  -11.1276 H         1 <0>         0.1358
     48 H17         2.2387   -8.0732   -9.9508 H         1 <0>         0.1361
     49 H18         2.2481   -8.7706   -7.5893 H         1 <0>         0.1317
     50 H19         0.1284   -8.8733   -0.1957 H         1 <0>         0.1722
     51 H20         0.1559  -10.8667    1.2474 H         1 <0>         0.1346
     52 H21         0.1039   -8.3735    4.7080 H         1 <0>         0.1372
     53 H22         0.0858   -6.3737    3.2735 H         1 <0>         0.1321
     54 H23         1.1796  -11.2413    4.1614 H         1 <0>         0.0775
     55 H24        -0.3724  -10.7456    4.8781 H         1 <0>         0.0722
     56 H25        -0.3509  -11.7860    3.4340 H         1 <0>         0.0716
     57 H26         0.9236   -7.5243   -5.3203 H         1 <0>         0.4314
     58 H27         0.0532   -4.7614   -2.0709 H         1 <0>         0.4524
@<TRIPOS>BOND
     1    1    2 1
     2    1   32 1
     3    1   33 1
     4    1   34 1
     5    2    7 ar
     6    2    3 ar
     7    3    4 ar
     8    3   35 1
     9    4    5 ar
    10    4   36 1
    11    5    6 ar
    12    5    8 1
    13    6    7 ar
    14    6   37 1
    15    7   38 1
    16    8   12 1
    17    8    9 2
    18    9   10 1
    19    9   39 1
    20   10   11 1
    21   10   25 1
    22   11   12 1
    23   11   13 2
    24   12   58 1
    25   13   14 1
    26   14   15 2
    27   14   16 1
    28   16   17 1
    29   16   40 1
    30   16   41 1
    31   17   18 1
    32   17   42 1
    33   17   57 1
    34   18   19 1
    35   18   43 1
    36   18   44 1
    37   19   24 ar
    38   19   20 ar
    39   20   21 ar
    40   20   45 1
    41   21   22 ar
    42   21   46 1
    43   22   23 ar
    44   22   47 1
    45   23   24 ar
    46   23   48 1
    47   24   49 1
    48   25   30 ar
    49   25   26 ar
    50   26   27 ar
    51   26   50 1
    52   27   28 ar
    53   27   51 1
    54   28   29 ar
    55   28   31 1
    56   29   30 ar
    57   29   52 1
    58   30   53 1
    59   31   54 1
    60   31   55 1
    61   31   56 1
@<TRIPOS>MOLECULE
ZINC47520629
   58    60     0     0     0
SMALL
USER_CHARGES

@<TRIPOS>ATOM
      1 C1         -1.2639    1.1839    0.1818 C.3       1 <0>        -0.1163
      2 C2         -0.5842   -0.1576    0.0846 C.ar      1 <0>        -0.0566
      3 C3         -0.5711   -0.8395   -1.1161 C.ar      1 <0>        -0.1831
      4 C4          0.0556   -2.0754   -1.2057 C.ar      1 <0>         0.2138
      5 C5          0.6690   -2.6255   -0.0875 C.ar      1 <0>        -0.1877
      6 C6          0.6557   -1.9434    1.1127 C.ar      1 <0>        -0.0616
      7 C7          0.0335   -0.7051    1.2007 C.ar      1 <0>         0.0858
      8 N1          0.0250   -0.0100    2.4182 N.am      1 <0>        -0.6725
      9 C8         -0.0565   -0.6874    3.5804 C.2       1 <0>         0.7050
     10 O1         -0.0401   -1.9032    3.5779 O.2       1 <0>        -0.5701
     11 N2         -0.1561   -0.0172    4.7455 N.am      1 <0>        -0.7432
     12 C9         -0.2447   -0.7536    6.0089 C.3       1 <0>         0.1564
     13 C10         1.1643   -1.0921    6.5042 C.3       1 <0>        -0.1608
     14 C11         1.0675   -1.7906    7.8623 C.3       1 <0>        -0.0030
     15 N3          0.4082   -0.9026    8.8273 N.4       1 <0>        -0.3824
     16 C12        -0.9681   -0.6315    8.3951 C.3       1 <0>        -0.0124
     17 C13        -0.9497    0.1115    7.0575 C.3       1 <0>        -0.1539
     18 C14         0.3874   -1.5461   10.1477 C.3       1 <0>         0.0456
     19 C15        -0.1776   -0.5881   11.1646 C.ar      1 <0>        -0.1926
     20 C16         0.6717    0.1218   11.9923 C.ar      1 <0>        -0.0628
     21 C17         0.1538    1.0005   12.9251 C.ar      1 <0>        -0.1198
     22 C18        -1.2142    1.1706   13.0313 C.ar      1 <0>        -0.0559
     23 C19        -2.0653    0.4624   12.2046 C.ar      1 <0>        -0.1443
     24 C20        -1.5473   -0.4144   11.2661 C.ar      1 <0>         0.1130
     25 F1         -2.3782   -1.1039   10.4541 F         1 <0>        -0.1306
     26 N4          0.0686   -2.7668   -2.4221 N.pl3     1 <0>        -0.6372
     27 C21        -0.5789   -2.1868   -3.6013 C.3       1 <0>         0.0908
     28 C22         0.7298   -4.0707   -2.5165 C.3       1 <0>         0.0911
     29 H1         -0.5483    1.9717   -0.0538 H         1 <0>         0.0731
     30 H2         -2.0931    1.2232   -0.5246 H         1 <0>         0.0726
     31 H3         -1.6419    1.3273    1.1941 H         1 <0>         0.0611
     32 H4         -1.0485   -0.4118   -1.9853 H         1 <0>         0.1281
     33 H5          1.1562   -3.5869   -0.1568 H         1 <0>         0.1260
     34 H6          1.1323   -2.3712    1.9823 H         1 <0>         0.1373
     35 H7          0.0779    0.9586    2.4240 H         1 <0>         0.4048
     36 H8         -0.1691    0.9527    4.7475 H         1 <0>         0.4017
     37 H9         -0.8093   -1.6734    5.8558 H         1 <0>         0.1076
     38 H10         1.6526   -1.7537    5.7886 H         1 <0>         0.1198
     39 H11         1.7441   -0.1748    6.6072 H         1 <0>         0.0900
     40 H12         0.4879   -2.7077    7.7581 H         1 <0>         0.1336
     41 H13         2.0690   -2.0331    8.2177 H         1 <0>         0.1358
     42 H14        -1.5044   -1.5734    8.2796 H         1 <0>         0.1362
     43 H15        -1.4695   -0.0184    9.1439 H         1 <0>         0.1359
     44 H16        -0.4138    1.0538    7.1720 H         1 <0>         0.0931
     45 H17        -1.9725    0.3103    6.7375 H         1 <0>         0.1194
     46 H18        -0.2344   -2.4404   10.1063 H         1 <0>         0.1390
     47 H19         1.4024   -1.8222   10.4334 H         1 <0>         0.1448
     48 H20         1.7405   -0.0105   11.9105 H         1 <0>         0.1445
     49 H21         0.8182    1.5545   13.5717 H         1 <0>         0.1452
     50 H22        -1.6178    1.8570   13.7609 H         1 <0>         0.1478
     51 H23        -3.1338    0.5951   12.2879 H         1 <0>         0.1500
     52 H24         0.1409   -1.5780   -4.1485 H         1 <0>         0.0505
     53 H25        -0.9430   -2.9865   -4.2461 H         1 <0>         0.0688
     54 H26        -1.4164   -1.5641   -3.2865 H         1 <0>         0.0687
     55 H27         0.0134   -4.8589   -2.2851 H         1 <0>         0.0499
     56 H28         1.1116   -4.2121   -3.5275 H         1 <0>         0.0690
     57 H29         1.5563   -4.1112   -1.8070 H         1 <0>         0.0689
     58 H30         0.9182   -0.0341    8.8867 H         1 <0>         0.4220
@<TRIPOS>BOND
     1    1    2 1
     2    1   29 1
     3    1   30 1
     4    1   31 1
     5    2    7 ar
     6    2    3 ar
     7    3    4 ar
     8    3   32 1
     9    4    5 ar
    10    4   26 1
    11    5    6 ar
    12    5   33 1
    13    6    7 ar
    14    6   34 1
    15    7    8 1
    16    8    9 am
    17    8   35 1
    18    9   10 2
    19    9   11 am
    20   11   12 1
    21   11   36 1
    22   12   17 1
    23   12   13 1
    24   12   37 1
    25   13   14 1
    26   13   38 1
    27   13   39 1
    28   14   15 1
    29   14   40 1
    30   14   41 1
    31   15   16 1
    32   15   18 1
    33   15   58 1
    34   16   17 1
    35   16   42 1
    36   16   43 1
    37   17   44 1
    38   17   45 1
    39   18   19 1
    40   18   46 1
    41   18   47 1
    42   19   24 ar
    43   19   20 ar
    44   20   21 ar
    45   20   48 1
    46   21   22 ar
    47   21   49 1
    48   22   23 ar
    49   22   50 1
    50   23   24 ar
    51   23   51 1
    52   24   25 1
    53   26   27 1
    54   26   28 1
    55   27   52 1
    56   27   53 1
    57   27   54 1
    58   28   55 1
    59   28   56 1
    60   28   57 1
@<TRIPOS>MOLECULE
ZINC63752443
   51    54     0     0     0
SMALL
USER_CHARGES

@<TRIPOS>ATOM
      1 C1         -0.2301    1.5301    0.2228 C.3       1 <0>        -0.1312
      2 C2         -0.2871    0.0244    0.1966 C.ar      1 <0>        -0.0285
      3 C3         -0.8761   -0.6240   -0.8745 C.ar      1 <0>        -0.1251
      4 C4         -0.9321   -2.0019   -0.9046 C.ar      1 <0>        -0.0358
      5 C5         -0.3923   -2.7426    0.1488 C.ar      1 <0>        -0.1648
      6 C6          0.2010   -2.0818    1.2264 C.ar      1 <0>        -0.0729
      7 C7          0.2548   -0.7035    1.2412 C.ar      1 <0>        -0.1243
      8 C8         -0.4490   -4.2187    0.1237 C.2       1 <0>         0.5641
      9 O1         -0.9663   -4.7910   -0.8153 O.2       1 <0>        -0.4626
     10 N1          0.0730   -4.9306    1.1421 N.am      1 <0>        -0.6217
     11 C9         -0.0122   -6.2887    1.1368 C.2       1 <0>         0.3002
     12 C10        -0.0162   -7.1218    0.0305 C.ar      1 <0>        -0.1888
     13 C11         0.0604   -6.8643   -1.3591 C.ar      1 <0>         0.0187
     14 C12         0.0333   -7.8979   -2.2365 C.ar      1 <0>        -0.1713
     15 C13        -0.0694   -9.2230   -1.8047 C.ar      1 <0>         0.0588
     16 C14        -0.1472   -9.5437   -0.4905 C.ar      1 <0>        -0.2101
     17 C15        -0.1241   -8.5173    0.4892 C.ar      1 <0>         0.3348
     18 N2         -0.1847   -8.5658    1.8047 N.pl3     1 <0>        -0.5907
     19 C16        -0.1156   -7.2017    2.3384 C.3       1 <0>         0.0963
     20 H1          0.7636   -7.0884    2.9727 H         1 <0>         0.1892
     21 C17        -1.3651   -6.8900    3.1211 C.2       1 <0>         0.5175
     22 O2         -2.3521   -7.5823    2.9887 O.2       1 <0>        -0.4816
     23 N3         -1.3857   -5.8421    3.9684 N.am      1 <0>        -0.7058
     24 C18        -2.6003   -5.5391    4.7293 C.3       1 <0>         0.1638
     25 C19        -2.3618   -4.3292    5.5954 C.ar      1 <0>        -0.1608
     26 C20        -2.0684   -4.4863    6.9370 C.ar      1 <0>        -0.0670
     27 C21        -1.8495   -3.3767    7.7316 C.ar      1 <0>        -0.1263
     28 C22        -1.9238   -2.1085    7.1858 C.ar      1 <0>        -0.0709
     29 C23        -2.2165   -1.9490    5.8448 C.ar      1 <0>        -0.1527
     30 C24        -2.4308   -3.0601    5.0465 C.ar      1 <0>         0.1138
     31 F1         -2.7125   -2.9056    3.7343 F         1 <0>        -0.1346
     32 H2          0.6881    1.8673   -0.2581 H         1 <0>         0.0849
     33 H3         -1.0897    1.9355   -0.3108 H         1 <0>         0.0777
     34 H4         -0.2474    1.8765    1.2561 H         1 <0>         0.0763
     35 H5         -1.2932   -0.0499   -1.6886 H         1 <0>         0.1411
     36 H6         -1.3927   -2.5068   -1.7409 H         1 <0>         0.1429
     37 H7          0.6201   -2.6487    2.0446 H         1 <0>         0.1218
     38 H8          0.7173   -0.1913    2.0719 H         1 <0>         0.1380
     39 H9          0.5094   -4.4749    1.8788 H         1 <0>         0.4346
     40 H10         0.1396   -5.8492   -1.7190 H         1 <0>         0.1687
     41 H11         0.0923   -7.6919   -3.2950 H         1 <0>         0.1539
     42 H12        -0.0877  -10.0142   -2.5396 H         1 <0>         0.1603
     43 H13        -0.2265  -10.5778   -0.1894 H         1 <0>         0.1615
     44 H14        -0.5963   -5.2884    4.0743 H         1 <0>         0.4042
     45 H15        -3.4199   -5.3365    4.0399 H         1 <0>         0.0909
     46 H16        -2.8570   -6.3914    5.3584 H         1 <0>         0.0970
     47 H17        -2.0104   -5.4763    7.3645 H         1 <0>         0.1379
     48 H18        -1.6207   -3.5004    8.7798 H         1 <0>         0.1382
     49 H19        -1.7533   -1.2422    7.8078 H         1 <0>         0.1406
     50 H20        -2.2748   -0.9583    5.4187 H         1 <0>         0.1414
     51 H21        -0.2591   -9.3744    2.3352 H         1 <0>         0.4583
@<TRIPOS>BOND
     1    1    2 1
     2    1   32 1
     3    1   33 1
     4    1   34 1
     5    2    7 ar
     6    2    3 ar
     7    3    4 ar
     8    3   35 1
     9    4    5 ar
    10    4   36 1
    11    5    6 ar
    12    5    8 1
    13    6    7 ar
    14    6   37 1
    15    7   38 1
    16    8    9 2
    17    8   10 am
    18   10   11 1
    19   10   39 1
    20   11   19 1
    21   11   12 2
    22   12   17 ar
    23   12   13 ar
    24   13   14 ar
    25   13   40 1
    26   14   15 ar
    27   14   41 1
    28   15   16 ar
    29   15   42 1
    30   16   17 ar
    31   16   43 1
    32   17   18 2
    33   18   19 1
    34   18   51 1
    35   19   20 1
    36   19   21 1
    37   21   22 2
    38   21   23 am
    39   23   24 1
    40   23   44 1
    41   24   25 1
    42   24   45 1
    43   24   46 1
    44   25   30 ar
    45   25   26 ar
    46   26   27 ar
    47   26   47 1
    48   27   28 ar
    49   27   48 1
    50   28   29 ar
    51   28   49 1
    52   29   30 ar
    53   29   50 1
    54   30   31 1
@<TRIPOS>MOLECULE
ZINC66233681
   54    56     0     0     0
SMALL
USER_CHARGES

@<TRIPOS>ATOM
      1 C1         -1.4503   -0.7807    1.0205 C.3       1 <0>         0.0507
      2 N1         -1.2876   -2.1912    1.3813 N.pl3     1 <0>        -0.4009
      3 C2         -1.3952   -3.2631    0.5369 C.2       1 <0>         0.0274
      4 C3         -1.1725   -4.3660    1.2769 C.2       1 <0>         0.0093
      5 N2         -0.9353   -3.9780    2.5388 N.pl3     1 <0>        -0.4717
      6 C4         -0.9977   -2.6763    2.6077 C.cat     1 <0>         0.3089
      7 C5         -0.7850   -1.8514    3.8509 C.3       1 <0>        -0.0877
      8 C6          0.7106   -1.5907    4.0402 C.3       1 <0>         0.1428
      9 N3          0.9174   -0.7888    5.2487 N.am      1 <0>        -0.7507
     10 C7          2.1644   -0.4348    5.6174 C.2       1 <0>         0.7070
     11 O1          3.1179   -0.7809    4.9470 O.2       1 <0>        -0.5800
     12 N4          2.3546    0.3030    6.7292 N.am      1 <0>        -0.7390
     13 C8          3.7102    0.6878    7.1299 C.3       1 <0>         0.1455
     14 C9          3.6586    1.4045    8.4807 C.3       1 <0>        -0.0329
     15 C10         3.0073    0.4906    9.5393 C.3       1 <0>        -0.1152
     16 C11         4.2075   -0.1843   10.2486 C.3       1 <0>        -0.1255
     17 C12         5.2512    0.9582   10.3159 C.3       1 <0>        -0.1256
     18 C13         5.0853    1.7017    8.9745 C.3       1 <0>        -0.1117
     19 C14         2.8782    2.6875    8.3544 C.ar      1 <0>        -0.0764
     20 C15         2.6231    3.4547    9.4759 C.ar      1 <0>        -0.0776
     21 C16         1.9074    4.6314    9.3601 C.ar      1 <0>        -0.1128
     22 C17         1.4470    5.0415    8.1226 C.ar      1 <0>        -0.0729
     23 C18         1.7027    4.2750    7.0013 C.ar      1 <0>        -0.1803
     24 C19         2.4224    3.1001    7.1165 C.ar      1 <0>        -0.0762
     25 C20         1.2004    4.7218    5.6526 C.3       1 <0>         0.5080
     26 F1          0.5093    5.9304    5.7893 F         1 <0>        -0.1741
     27 F2          2.2848    4.8999    4.7867 F         1 <0>        -0.1748
     28 F3          0.3409    3.7497    5.1296 F         1 <0>        -0.1821
     29 H1         -0.4872   -0.3696    0.7181 H         1 <0>         0.1142
     30 H2         -2.1570   -0.6960    0.1949 H         1 <0>         0.1222
     31 H3         -1.8279   -0.2270    1.8802 H         1 <0>         0.1135
     32 H4         -1.6166   -3.2307   -0.5197 H         1 <0>         0.2266
     33 H5         -1.1830   -5.3843    0.9174 H         1 <0>         0.2271
     34 H6         -1.3097   -0.9013    3.7506 H         1 <0>         0.1270
     35 H7         -1.1721   -2.3907    4.7154 H         1 <0>         0.1296
     36 H8          1.2353   -2.5408    4.1405 H         1 <0>         0.0786
     37 H9          1.0977   -1.0514    3.1757 H         1 <0>         0.0791
     38 H10         0.1567   -0.5126    5.7835 H         1 <0>         0.4020
     39 H11         1.5940    0.5792    7.2640 H         1 <0>         0.4000
     40 H12         4.3308   -0.2042    7.2154 H         1 <0>         0.0822
     41 H13         4.1349    1.3555    6.3803 H         1 <0>         0.0730
     42 H14         2.4279    1.0814   10.2487 H         1 <0>         0.0759
     43 H15         2.3767   -0.2585    9.0605 H         1 <0>         0.0698
     44 H16         3.9293   -0.5129   11.2500 H         1 <0>         0.0718
     45 H17         4.5857   -1.0188    9.6581 H         1 <0>         0.0692
     46 H18         5.0342    1.6245   11.1508 H         1 <0>         0.0693
     47 H19         6.2581    0.5502   10.4040 H         1 <0>         0.0722
     48 H20         5.8145    1.3354    8.2519 H         1 <0>         0.0757
     49 H21         5.2130    2.7739    9.1237 H         1 <0>         0.0752
     50 H22         2.9828    3.1343   10.4426 H         1 <0>         0.1353
     51 H23         1.7076    5.2303   10.2363 H         1 <0>         0.1387
     52 H24         0.8871    5.9606    8.0322 H         1 <0>         0.1397
     53 H25         2.6255    2.5031    6.2398 H         1 <0>         0.1369
     54 H26        -0.7440   -4.5712    3.2820 H         1 <0>         0.4639
@<TRIPOS>BOND
     1    1    2 1
     2    1   29 1
     3    1   30 1
     4    1   31 1
     5    2    6 1
     6    2    3 1
     7    3    4 2
     8    3   32 1
     9    4    5 1
    10    4   33 1
    11    5    6 2
    12    5   54 1
    13    6    7 1
    14    7    8 1
    15    7   34 1
    16    7   35 1
    17    8    9 1
    18    8   36 1
    19    8   37 1
    20    9   10 am
    21    9   38 1
    22   10   11 2
    23   10   12 am
    24   12   13 1
    25   12   39 1
    26   13   14 1
    27   13   40 1
    28   13   41 1
    29   14   18 1
    30   14   15 1
    31   14   19 1
    32   15   16 1
    33   15   42 1
    34   15   43 1
    35   16   17 1
    36   16   44 1
    37   16   45 1
    38   17   18 1
    39   17   46 1
    40   17   47 1
    41   18   48 1
    42   18   49 1
    43   19   24 ar
    44   19   20 ar
    45   20   21 ar
    46   20   50 1
    47   21   22 ar
    48   21   51 1
    49   22   23 ar
    50   22   52 1
    51   23   24 ar
    52   23   25 1
    53   24   53 1
    54   25   26 1
    55   25   27 1
    56   25   28 1
@<TRIPOS>MOLECULE
ZINC08947841
   63    65     0     0     0
SMALL
USER_CHARGES
N-[(4-fluorophenyl)carbamoylmethyl]-N-methyl-2-[4-methyl-2,5-dioxo-4-(4-tert-butylphenyl)-imidazolidin-1-yl]-acetamide
@<TRIPOS>ATOM
      1 C1          6.1795   -3.9824   -6.1929 C.3       1 <0>        -0.1441
      2 C2          6.9729   -4.8251   -5.1924 C.3       1 <0>         0.1719
      3 C3          6.7488   -4.3260   -3.7787 C.2       1 <0>         0.5416
      4 O1          7.0175   -3.2289   -3.3383 O.2       1 <0>        -0.4518
      5 N1          6.1880   -5.3553   -3.1136 N.am      1 <0>        -0.5616
      6 C4          6.0329   -6.4258   -3.9009 C.2       1 <0>         0.7125
      7 O2          5.5524   -7.4770   -3.5251 O.2       1 <0>        -0.5374
      8 N2          6.4647   -6.2073   -5.1562 N.am      1 <0>        -0.7144
      9 C5          5.8018   -5.3096   -1.7011 C.3       1 <0>         0.1030
     10 C6          4.3784   -4.8284   -1.5849 C.2       1 <0>         0.5122
     11 O3          3.7486   -4.5510   -2.5836 O.2       1 <0>        -0.5219
     12 N3          3.8052   -4.7065   -0.3712 N.am      1 <0>        -0.5978
     13 C7          4.5660   -5.0416    0.8351 C.3       1 <0>         0.0744
     14 C8          2.4215   -4.2387   -0.2582 C.3       1 <0>         0.0998
     15 C9          2.4073   -2.7367   -0.1370 C.2       1 <0>         0.4957
     16 O4          3.4504   -2.1178   -0.1442 O.2       1 <0>        -0.5040
     17 N4          1.2355   -2.0810   -0.0205 N.am      1 <0>        -0.6726
     18 C10         1.2138   -0.6809   -0.0190 C.ar      1 <0>         0.1362
     19 C11         2.1372    0.0295   -0.7744 C.ar      1 <0>        -0.0909
     20 C12         2.1137    1.4104   -0.7719 C.ar      1 <0>        -0.1323
     21 C13         1.1701    2.0865   -0.0168 C.ar      1 <0>         0.0843
     22 C14         0.2484    1.3799    0.7372 C.ar      1 <0>        -0.1334
     23 C15         0.2685   -0.0011    0.7375 C.ar      1 <0>        -0.1162
     24 F1          1.1488    3.4373   -0.0158 F         1 <0>        -0.1386
     25 C16         8.4406   -4.8087   -5.5340 C.ar      1 <0>        -0.1036
     26 C17         9.2742   -3.8692   -4.9565 C.ar      1 <0>        -0.1057
     27 C18        10.6212   -3.8566   -5.2669 C.ar      1 <0>        -0.1153
     28 C19        11.1330   -4.7779   -6.1614 C.ar      1 <0>        -0.0575
     29 C20        10.2985   -5.7143   -6.7425 C.ar      1 <0>        -0.1134
     30 C21         8.9523   -5.7294   -6.4292 C.ar      1 <0>        -0.0927
     31 C22        12.6006   -4.7611   -6.5034 C.3       1 <0>        -0.0325
     32 C23        12.7715   -4.5268   -8.0057 C.3       1 <0>        -0.1393
     33 C24        13.2917   -3.6364   -5.7299 C.3       1 <0>        -0.1467
     34 C25        13.2285   -6.1031   -6.1218 C.3       1 <0>        -0.1395
     35 H1          6.5115   -2.9456   -6.1386 H         1 <0>         0.0863
     36 H2          6.3439   -4.3643   -7.2005 H         1 <0>         0.0829
     37 H3          5.1177   -4.0369   -5.9524 H         1 <0>         0.0754
     38 H4          6.4484   -6.8383   -5.8927 H         1 <0>         0.4408
     39 H5          6.4611   -4.6262   -1.1660 H         1 <0>         0.1294
     40 H6          5.8845   -6.3070   -1.2694 H         1 <0>         0.1313
     41 H7          4.4217   -6.0951    1.0746 H         1 <0>         0.0688
     42 H8          5.6249   -4.8501    0.6618 H         1 <0>         0.0770
     43 H9          4.2173   -4.4290    1.6665 H         1 <0>         0.0786
     44 H10         1.9602   -4.6790    0.6258 H         1 <0>         0.1174
     45 H11         1.8636   -4.5369   -1.1459 H         1 <0>         0.1211
     46 H12         0.4073   -2.5791    0.0623 H         1 <0>         0.4138
     47 H13         2.8730   -0.4974   -1.3637 H         1 <0>         0.1430
     48 H14         2.8346    1.9634   -1.3558 H         1 <0>         0.1397
     49 H15        -0.4867    1.9090    1.3255 H         1 <0>         0.1408
     50 H16        -0.4508   -0.5519    1.3254 H         1 <0>         0.1371
     51 H17         8.8736   -3.1470   -4.2606 H         1 <0>         0.1391
     52 H18        11.2730   -3.1247   -4.8132 H         1 <0>         0.1317
     53 H19        10.6983   -6.4339   -7.4416 H         1 <0>         0.1261
     54 H20         8.3003   -6.4608   -6.8835 H         1 <0>         0.1217
     55 H21        12.3242   -3.5708   -8.2775 H         1 <0>         0.0574
     56 H22        13.8330   -4.5147   -8.2530 H         1 <0>         0.0604
     57 H23        12.2792   -5.3281   -8.5567 H         1 <0>         0.0574
     58 H24        13.1699   -3.8033   -4.6597 H         1 <0>         0.0593
     59 H25        14.3531   -3.6242   -5.9773 H         1 <0>         0.0603
     60 H26        12.8443   -2.6803   -6.0018 H         1 <0>         0.0600
     61 H27        12.7362   -6.9044   -6.6729 H         1 <0>         0.0574
     62 H28        14.2900   -6.0910   -6.3692 H         1 <0>         0.0605
     63 H29        13.1067   -6.2700   -5.0516 H         1 <0>         0.0567
@<TRIPOS>BOND
     1    1    2 1
     2    1   35 1
     3    1   36 1
     4    1   37 1
     5    2    8 1
     6    2    3 1
     7    2   25 1
     8    3    4 2
     9    3    5 am
    10    5    6 am
    11    5    9 1
    12    6    7 2
    13    6    8 am
    14    8   38 1
    15    9   10 1
    16    9   39 1
    17    9   40 1
    18   10   11 2
    19   10   12 am
    20   12   13 1
    21   12   14 1
    22   13   41 1
    23   13   42 1
    24   13   43 1
    25   14   15 1
    26   14   44 1
    27   14   45 1
    28   15   16 2
    29   15   17 am
    30   17   18 1
    31   17   46 1
    32   18   23 ar
    33   18   19 ar
    34   19   20 ar
    35   19   47 1
    36   20   21 ar
    37   20   48 1
    38   21   22 ar
    39   21   24 1
    40   22   23 ar
    41   22   49 1
    42   23   50 1
    43   25   30 ar
    44   25   26 ar
    45   26   27 ar
    46   26   51 1
    47   27   28 ar
    48   27   52 1
    49   28   29 ar
    50   28   31 1
    51   29   30 ar
    52   29   53 1
    53   30   54 1
    54   31   32 1
    55   31   33 1
    56   31   34 1
    57   32   55 1
    58   32   56 1
    59   32   57 1
    60   33   58 1
    61   33   59 1
    62   33   60 1
    63   34   61 1
    64   34   62 1
    65   34   63 1
@<TRIPOS>MOLECULE
ZINC15466038
   65    68     0     0     0
SMALL
USER_CHARGES
(3S)-N-(4-benzamido-2,5-dimethoxy-phenyl)-1-(2,4-dimethylphenyl)-5-oxo-pyrrolidine-3-carboxamide
@<TRIPOS>ATOM
      1 C1         16.3299    1.0955   -5.8136 C.3       1 <0>        -0.1170
      2 C2         15.6105    0.2746   -4.7746 C.ar      1 <0>        -0.0730
      3 C3         16.3190   -0.6102   -3.9822 C.ar      1 <0>        -0.1218
      4 C4         15.6628   -1.3639   -3.0293 C.ar      1 <0>        -0.1000
      5 C5         14.2895   -1.2330   -2.8673 C.ar      1 <0>         0.1300
      6 C6         13.5802   -0.3480   -3.6683 C.ar      1 <0>        -0.0636
      7 C7         14.2435    0.4072   -4.6159 C.ar      1 <0>        -0.1179
      8 C8         12.0893   -0.2070   -3.4998 C.3       1 <0>        -0.1050
      9 N1         13.6215   -1.9956   -1.9029 N.am      1 <0>        -0.5700
     10 C9         13.4060   -1.5708   -0.5147 C.3       1 <0>         0.1201
     11 C10        12.2881   -2.4883    0.0283 C.3       1 <0>        -0.1250
     12 H1         12.4613   -2.7363    1.0755 H         1 <0>         0.1344
     13 C11        12.4416   -3.7377   -0.8698 C.3       1 <0>        -0.1452
     14 C12        13.0949   -3.2116   -2.1288 C.2       1 <0>         0.5194
     15 O1         13.1380   -3.8015   -3.1876 O.2       1 <0>        -0.5129
     16 C13        10.9333   -1.8548   -0.1561 C.2       1 <0>         0.5209
     17 O2         10.8402   -0.7623   -0.6750 O.2       1 <0>        -0.5079
     18 N2          9.8251   -2.5019    0.2556 N.am      1 <0>        -0.6548
     19 C14         8.5769   -1.8656    0.1916 C.ar      1 <0>         0.1459
     20 C15         8.5026   -0.4799    0.2125 C.ar      1 <0>        -0.1661
     21 C16         7.2707    0.1485    0.1446 C.ar      1 <0>         0.0924
     22 C17         6.1052   -0.6104    0.0649 C.ar      1 <0>         0.1392
     23 C18         6.1796   -1.9957    0.0435 C.ar      1 <0>        -0.1528
     24 C19         7.4123   -2.6241    0.1067 C.ar      1 <0>         0.0852
     25 O3          7.4853   -3.9824    0.0853 O.3       1 <0>        -0.3179
     26 C20         6.2510   -4.6971   -0.0035 C.3       1 <0>         0.0287
     27 N3          4.8578    0.0256    0.0005 N.am      1 <0>        -0.6571
     28 C21         3.7844   -0.5345    0.5927 C.2       1 <0>         0.5619
     29 O4          3.8779   -1.6318    1.1078 O.2       1 <0>        -0.5215
     30 C22         2.4936    0.1854    0.6160 C.ar      1 <0>        -0.1385
     31 C23         1.3800   -0.3919    1.2285 C.ar      1 <0>        -0.0566
     32 C24         0.1783    0.2855    1.2471 C.ar      1 <0>        -0.1272
     33 C25         0.0755    1.5343    0.6603 C.ar      1 <0>        -0.0896
     34 C26         1.1755    2.1122    0.0516 C.ar      1 <0>        -0.1263
     35 C27         2.3830    1.4456    0.0259 C.ar      1 <0>        -0.0844
     36 O5          7.1982    1.5069    0.1599 O.3       1 <0>        -0.3164
     37 C28         8.4328    2.2216    0.2430 C.3       1 <0>         0.0291
     38 H2         16.3504    0.5503   -6.7572 H         1 <0>         0.0730
     39 H3         15.8091    2.0429   -5.9527 H         1 <0>         0.0679
     40 H4         17.3506    1.2871   -5.4825 H         1 <0>         0.0683
     41 H5         17.3868   -0.7116   -4.1087 H         1 <0>         0.1270
     42 H6         16.2166   -2.0547   -2.4108 H         1 <0>         0.1241
     43 H7         13.6930    1.0993   -5.2359 H         1 <0>         0.1265
     44 H8         11.8785    0.5722   -2.7674 H         1 <0>         0.0776
     45 H9         11.6394    0.0614   -4.4557 H         1 <0>         0.0623
     46 H10        11.6716   -1.1528   -3.1546 H         1 <0>         0.0630
     47 H11        13.0870   -0.5290   -0.4843 H         1 <0>         0.1002
     48 H12        14.3182   -1.7026    0.0673 H         1 <0>         0.0870
     49 H13        13.0815   -4.4773   -0.3884 H         1 <0>         0.1236
     50 H14        11.4656   -4.1664   -1.0970 H         1 <0>         0.1095
     51 H15         9.8907   -3.4078    0.5961 H         1 <0>         0.4183
     52 H16         9.4060    0.1083    0.2781 H         1 <0>         0.1661
     53 H17         5.2763   -2.5841   -0.0227 H         1 <0>         0.1600
     54 H18         5.6260   -4.4509    0.8549 H         1 <0>         0.0615
     55 H19         5.7342   -4.4171   -0.9215 H         1 <0>         0.0549
     56 H20         6.4513   -5.7685   -0.0117 H         1 <0>         0.1019
     57 H21         4.7670    0.8688   -0.4703 H         1 <0>         0.4148
     58 H22         1.4588   -1.3667    1.6866 H         1 <0>         0.1374
     59 H23        -0.6841   -0.1601    1.7203 H         1 <0>         0.1322
     60 H24        -0.8687    2.0585    0.6737 H         1 <0>         0.1296
     61 H25         1.0885    3.0873   -0.4046 H         1 <0>         0.1314
     62 H26         3.2408    1.8977   -0.4496 H         1 <0>         0.1268
     63 H27         8.9513    1.9456    1.1612 H         1 <0>         0.0547
     64 H28         9.0560    1.9712   -0.6155 H         1 <0>         0.0612
     65 H29         8.2329    3.2931    0.2466 H         1 <0>         0.1007
@<TRIPOS>BOND
     1    1    2 1
     2    1   38 1
     3    1   39 1
     4    1   40 1
     5    2    7 ar
     6    2    3 ar
     7    3    4 ar
     8    3   41 1
     9    4    5 ar
    10    4   42 1
    11    5    6 ar
    12    5    9 1
    13    6    7 ar
    14    6    8 1
    15    7   43 1
    16    8   44 1
    17    8   45 1
    18    8   46 1
    19    9   14 am
    20    9   10 1
    21   10   11 1
    22   10   47 1
    23   10   48 1
    24   11   12 1
    25   11   13 1
    26   11   16 1
    27   13   14 1
    28   13   49 1
    29   13   50 1
    30   14   15 2
    31   16   17 2
    32   16   18 am
    33   18   19 1
    34   18   51 1
    35   19   24 ar
    36   19   20 ar
    37   20   21 ar
    38   20   52 1
    39   21   22 ar
    40   21   36 1
    41   22   23 ar
    42   22   27 1
    43   23   24 ar
    44   23   53 1
    45   24   25 1
    46   25   26 1
    47   26   54 1
    48   26   55 1
    49   26   56 1
    50   27   28 am
    51   27   57 1
    52   28   29 2
    53   28   30 1
    54   30   35 ar
    55   30   31 ar
    56   31   32 ar
    57   31   58 1
    58   32   33 ar
    59   32   59 1
    60   33   34 ar
    61   33   60 1
    62   34   35 ar
    63   34   61 1
    64   35   62 1
    65   36   37 1
    66   37   63 1
    67   37   64 1
    68   37   65 1
@<TRIPOS>MOLECULE
ZINC21734696
   57    60     0     0     0
SMALL
USER_CHARGES
[2-[(8-methyl-2,4-dioxo-1,3-diazaspiro[4.5]decan-3-yl)amino]-2-oxo-ethyl] 2-[(8-chloro-1-naphthyl)sulfanyl]acetate
@<TRIPOS>ATOM
      1 C1         -1.1951   -8.6133    0.5263 C.3       1 <0>        -0.1507
      2 C2         -1.3422   -7.1767    1.0316 C.3       1 <0>        -0.0981
      3 C3         -0.0151   -6.4358    0.8555 C.3       1 <0>        -0.1119
      4 C4         -0.1599   -5.0022    1.3724 C.3       1 <0>        -0.1169
      5 C5         -1.2652   -4.2899    0.6006 C.3       1 <0>         0.1281
      6 C6         -2.5897   -5.0309    0.7464 C.3       1 <0>        -0.1153
      7 C7         -2.4351   -6.4643    0.2319 C.3       1 <0>        -0.1123
      8 C8         -1.4050   -2.8625    1.0780 C.2       1 <0>         0.5312
      9 O1         -1.6973   -2.4869    2.1930 O.2       1 <0>        -0.4498
     10 N1         -1.1368   -2.0946    0.0017 N.am      1 <0>        -0.3724
     11 C9         -0.8559   -2.8373   -1.0761 C.2       1 <0>         0.7164
     12 O2         -0.5866   -2.3721   -2.1661 O.2       1 <0>        -0.5269
     13 N2         -0.9018   -4.1580   -0.8160 N.am      1 <0>        -0.7193
     14 N3         -1.1558   -0.6938    0.0094 N.am      1 <0>        -0.5159
     15 C10         0.0021   -0.0041    0.0020 C.2       1 <0>         0.5247
     16 O3          1.0605   -0.5961   -0.0113 O.2       1 <0>        -0.4918
     17 C11        -0.0184    1.5028    0.0103 C.3       1 <0>         0.0612
     18 O4          1.3438    2.0054   -0.0000 O.3       1 <0>        -0.3281
     19 C12         1.5016    3.3383    0.0056 C.2       1 <0>         0.4928
     20 O5          0.5336    4.0612    0.0188 O.2       1 <0>        -0.4874
     21 C13         2.8862    3.9332   -0.0044 C.3       1 <0>        -0.1925
     22 S1          2.7667    5.7433    0.0065 S.3       1 <0>         0.0380
     23 C14         4.4445    6.2813   -0.0066 C.ar      1 <0>        -0.0926
     24 C15         5.4714    5.3595   -0.0214 C.ar      1 <0>        -0.1264
     25 C16         6.7990    5.7745   -0.0323 C.ar      1 <0>        -0.0891
     26 C17         7.1225    7.0975   -0.0282 C.ar      1 <0>        -0.1109
     27 C18         6.1069    8.0687   -0.0128 C.ar      1 <0>        -0.0253
     28 C19         4.7508    7.6594   -0.0080 C.ar      1 <0>        -0.0268
     29 C20         3.7371    8.6310    0.0132 C.ar      1 <0>        -0.0396
     30 C21         4.0701    9.9528    0.0177 C.ar      1 <0>        -0.0994
     31 C22         5.4036   10.3555    0.0068 C.ar      1 <0>        -0.1036
     32 C23         6.4117    9.4410   -0.0081 C.ar      1 <0>        -0.0975
     33 Cl1         2.0688    8.1513    0.0264 Cl        1 <0>         0.0045
     34 H1         -0.4095   -9.1255    1.1011 H         1 <0>         0.0577
     35 H2         -0.9211   -8.6010   -0.5390 H         1 <0>         0.0562
     36 H3         -2.1490   -9.1462    0.6535 H         1 <0>         0.0576
     37 H4         -1.6164   -7.1887    2.0968 H         1 <0>         0.0779
     38 H5          0.7719   -6.9532    1.4238 H         1 <0>         0.0783
     39 H6          0.2552   -6.4161   -0.2106 H         1 <0>         0.0664
     40 H7         -0.4153   -5.0222    2.4421 H         1 <0>         0.0914
     41 H8          0.7892   -4.4642    1.2321 H         1 <0>         0.0784
     42 H9         -2.8830   -5.0525    1.8064 H         1 <0>         0.0920
     43 H10        -3.3652   -4.5143    0.1619 H         1 <0>         0.0770
     44 H11        -2.1569   -6.4445   -0.8322 H         1 <0>         0.0666
     45 H12        -3.3871   -7.0022    0.3520 H         1 <0>         0.0782
     46 H13        -0.7300   -5.0573   -1.4258 H         1 <0>         0.4719
     47 H14        -2.1158   -0.1568    0.0215 H         1 <0>         0.4565
     48 H15        -0.5504    1.8672   -0.8809 H         1 <0>         0.1166
     49 H16        -0.5333    1.8575    0.9153 H         1 <0>         0.1162
     50 H17         3.4363    3.5967    0.8867 H         1 <0>         0.1276
     51 H18         3.4192    3.6064   -0.9094 H         1 <0>         0.1278
     52 H19         5.2417    4.3042   -0.0249 H         1 <0>         0.1288
     53 H20         7.5863    5.0353   -0.0438 H         1 <0>         0.1315
     54 H21         8.1592    7.4002   -0.0372 H         1 <0>         0.1353
     55 H22         3.2889   10.6985    0.0295 H         1 <0>         0.1381
     56 H23         5.6411   11.4090    0.0107 H         1 <0>         0.1370
     57 H24         7.4409    9.7682   -0.0168 H         1 <0>         0.1383
@<TRIPOS>BOND
     1    1    2 1
     2    1   34 1
     3    1   35 1
     4    1   36 1
     5    2    7 1
     6    2    3 1
     7    2   37 1
     8    3    4 1
     9    3   38 1
    10    3   39 1
    11    4    5 1
    12    4   40 1
    13    4   41 1
    14    5   13 1
    15    5    6 1
    16    5    8 1
    17    6    7 1
    18    6   42 1
    19    6   43 1
    20    7   44 1
    21    7   45 1
    22    8    9 2
    23    8   10 am
    24   10   11 am
    25   10   14 1
    26   11   12 2
    27   11   13 am
    28   13   46 1
    29   14   15 am
    30   14   47 1
    31   15   16 2
    32   15   17 1
    33   17   18 1
    34   17   48 1
    35   17   49 1
    36   18   19 1
    37   19   20 2
    38   19   21 1
    39   21   22 1
    40   21   50 1
    41   21   51 1
    42   22   23 1
    43   23   28 ar
    44   23   24 ar
    45   24   25 ar
    46   24   52 1
    47   25   26 ar
    48   25   53 1
    49   26   27 ar
    50   26   54 1
    51   27   32 ar
    52   27   28 ar
    53   28   29 ar
    54   29   30 ar
    55   29   33 1
    56   30   31 ar
    57   30   55 1
    58   31   32 ar
    59   31   56 1
    60   32   57 1
@<TRIPOS>MOLECULE
ZINC35146110
   63    66     0     0     0
SMALL
USER_CHARGES

@<TRIPOS>ATOM
      1 C1         -0.0296    1.5320   -0.0215 C.3       1 <0>        -0.1576
      2 C2         -0.0048    0.0022   -0.0185 C.3       1 <0>         0.1870
      3 H1          0.5058   -0.3547   -0.9129 H         1 <0>         0.0977
      4 C3          0.7260   -0.4860    1.2057 C.ar      1 <0>        -0.0921
      5 C4          0.0767   -0.5338    2.4251 C.ar      1 <0>        -0.1170
      6 C5          0.7471   -0.9816    3.5480 C.ar      1 <0>        -0.1156
      7 C6          2.0667   -1.3820    3.4514 C.ar      1 <0>        -0.1184
      8 C7          2.7157   -1.3349    2.2318 C.ar      1 <0>        -0.1137
      9 C8          2.0441   -0.8912    1.1081 C.ar      1 <0>        -0.1069
     10 N1         -1.3779   -0.5085   -0.0036 N.am      1 <0>        -0.7269
     11 C9         -2.0566   -0.6505   -1.1592 C.2       1 <0>         0.5622
     12 O1         -1.5294   -0.3547   -2.2143 O.2       1 <0>        -0.5069
     13 C10        -3.4385   -1.1644   -1.1442 C.ar      1 <0>        -0.1338
     14 C11        -4.0498   -1.4999    0.0665 C.ar      1 <0>        -0.1042
     15 C12        -5.3470   -1.9811    0.0729 C.ar      1 <0>         0.1270
     16 C13        -6.0436   -2.1322   -1.1224 C.ar      1 <0>        -0.0831
     17 C14        -5.4483   -1.8041   -2.3222 C.ar      1 <0>        -0.1156
     18 C15        -4.1485   -1.3137   -2.3451 C.ar      1 <0>         0.2326
     19 N2         -3.5509   -0.9777   -3.5550 N.pl3     1 <0>        -0.6634
     20 C16        -2.7969   -1.9793   -4.3211 C.3       1 <0>         0.1545
     21 C17        -3.3513   -2.0283   -5.7484 C.3       1 <0>        -0.1365
     22 C18        -3.3211   -0.6222   -6.3516 C.3       1 <0>        -0.1143
     23 C19        -4.2063    0.3101   -5.5213 C.3       1 <0>        -0.1367
     24 C20        -3.6667    0.3840   -4.0945 C.3       1 <0>         0.1544
     25 N3         -5.9609   -2.3177    1.2863 N.am      1 <0>        -0.6655
     26 C21        -7.2807   -2.1034    1.4561 C.2       1 <0>         0.5633
     27 O2         -7.9546   -1.6967    0.5295 O.2       1 <0>        -0.5005
     28 C22        -7.9087   -2.3627    2.7688 C.ar      1 <0>        -0.1337
     29 C23        -7.1366   -2.8242    3.8365 C.ar      1 <0>        -0.0382
     30 C24        -7.7289   -3.0643    5.0588 C.ar      1 <0>        -0.1185
     31 C25        -9.0853   -2.8486    5.2281 C.ar      1 <0>        -0.0279
     32 C26        -9.8561   -2.3913    4.1743 C.ar      1 <0>        -0.0532
     33 C27        -9.2751   -2.1417    2.9480 C.ar      1 <0>         0.0044
     34 N4        -11.3063   -2.1638    4.3644 N.pl3     1 <0>         0.0300
     35 O3        -11.8160   -2.3776    5.4397 O.2       1 <0>        -0.1487
     36 O4        -11.9812   -1.7642    3.4443 O.3       1 <0>        -0.1466
     37 H2          0.9919    1.9119   -0.0326 H         1 <0>         0.0680
     38 H3         -0.5583    1.8851   -0.9069 H         1 <0>         0.0664
     39 H4         -0.5403    1.8888    0.8729 H         1 <0>         0.0577
     40 H5         -0.9542   -0.2211    2.5005 H         1 <0>         0.1175
     41 H6          0.2400   -1.0183    4.5008 H         1 <0>         0.1235
     42 H7          2.5907   -1.7311    4.3289 H         1 <0>         0.1237
     43 H8          3.7468   -1.6474    2.1564 H         1 <0>         0.1254
     44 H9          2.5500   -0.8580    0.1545 H         1 <0>         0.1252
     45 H10        -1.7984   -0.7444    0.8381 H         1 <0>         0.3948
     46 H11        -3.5109   -1.3841    0.9953 H         1 <0>         0.1265
     47 H12        -7.0558   -2.5087   -1.1103 H         1 <0>         0.1450
     48 H13        -5.9950   -1.9248   -3.2458 H         1 <0>         0.1352
     49 H14        -1.7432   -1.7017   -4.3478 H         1 <0>         0.0572
     50 H15        -2.9075   -2.9572   -3.8524 H         1 <0>         0.0594
     51 H16        -2.7394   -2.6971   -6.3536 H         1 <0>         0.0657
     52 H17        -4.3782   -2.3932   -5.7274 H         1 <0>         0.0611
     53 H18        -2.2973   -0.2481   -6.3495 H         1 <0>         0.0616
     54 H19        -3.6922   -0.6584   -7.3759 H         1 <0>         0.0578
     55 H20        -4.2029    1.3057   -5.9650 H         1 <0>         0.0663
     56 H21        -5.2252   -0.0768   -5.5025 H         1 <0>         0.0610
     57 H22        -4.3511    0.9650   -3.4763 H         1 <0>         0.0595
     58 H23        -2.6855    0.8586   -4.1022 H         1 <0>         0.0569
     59 H24        -5.4362   -2.7051    2.0043 H         1 <0>         0.4108
     60 H25        -6.0780   -2.9933    3.7055 H         1 <0>         0.1466
     61 H26        -7.1329   -3.4217    5.8855 H         1 <0>         0.1585
     62 H27        -9.5443   -3.0384    6.1872 H         1 <0>         0.1621
     63 H28        -9.8771   -1.7801    2.1274 H         1 <0>         0.1689
@<TRIPOS>BOND
     1    1    2 1
     2    1   37 1
     3    1   38 1
     4    1   39 1
     5    2    3 1
     6    2    4 1
     7    2   10 1
     8    4    9 ar
     9    4    5 ar
    10    5    6 ar
    11    5   40 1
    12    6    7 ar
    13    6   41 1
    14    7    8 ar
    15    7   42 1
    16    8    9 ar
    17    8   43 1
    18    9   44 1
    19   10   11 am
    20   10   45 1
    21   11   12 2
    22   11   13 1
    23   13   18 ar
    24   13   14 ar
    25   14   15 ar
    26   14   46 1
    27   15   16 ar
    28   15   25 1
    29   16   17 ar
    30   16   47 1
    31   17   18 ar
    32   17   48 1
    33   18   19 1
    34   19   24 1
    35   19   20 1
    36   20   21 1
    37   20   49 1
    38   20   50 1
    39   21   22 1
    40   21   51 1
    41   21   52 1
    42   22   23 1
    43   22   53 1
    44   22   54 1
    45   23   24 1
    46   23   55 1
    47   23   56 1
    48   24   57 1
    49   24   58 1
    50   25   26 am
    51   25   59 1
    52   26   27 2
    53   26   28 1
    54   28   33 ar
    55   28   29 ar
    56   29   30 ar
    57   29   60 1
    58   30   31 ar
    59   30   61 1
    60   31   32 ar
    61   31   62 1
    62   32   33 ar
    63   32   34 1
    64   33   63 1
    65   34   35 2
    66   34   36 1
@<TRIPOS>MOLECULE
ZINC49469272
   56    59     0     0     0
SMALL
USER_CHARGES

@<TRIPOS>ATOM
      1 C1          1.2706    1.2258   -0.1553 C.3       1 <0>        -0.1108
      2 C2          0.6329   -0.1375   -0.0778 C.ar      1 <0>        -0.0989
      3 C3          0.0464   -0.6893   -1.2017 C.ar      1 <0>        -0.1010
      4 C4         -0.5401   -1.9396   -1.1367 C.ar      1 <0>        -0.1822
      5 C5         -0.5417   -2.6431    0.0568 C.ar      1 <0>         0.0887
      6 C6          0.0490   -2.0877    1.1894 C.ar      1 <0>         0.1440
      7 C7          0.6409   -0.8354    1.1150 C.ar      1 <0>        -0.0968
      8 N1          0.0499   -2.7946    2.3997 N.am      1 <0>        -0.6731
      9 C8          0.1481   -2.1301    3.5682 C.2       1 <0>         0.7086
     10 O1          0.1326   -0.9144    3.5794 O.2       1 <0>        -0.5680
     11 N2          0.2635   -2.8132    4.7243 N.am      1 <0>        -0.7373
     12 C9          0.3703   -2.0909    5.9944 C.3       1 <0>         0.1272
     13 C10         0.4894   -3.0943    7.1432 C.3       1 <0>         0.1022
     14 N3          0.5962   -2.3720    8.4133 N.am      1 <0>        -0.3366
     15 C11        -0.5270   -2.0701    9.0910 C.2       1 <0>         0.4776
     16 O2         -1.6172   -2.3957    8.6494 O.2       1 <0>        -0.5171
     17 C12        -0.4355   -1.3740   10.3174 C.2       1 <0>        -0.1691
     18 C13         0.8049   -1.0336   10.7674 C.2       1 <0>        -0.0624
     19 C14         1.9262   -1.3967    9.9811 C.2       1 <0>         0.1596
     20 N4          1.7587   -2.0490    8.8521 N.2       1 <0>        -0.2053
     21 C15         3.2873   -1.0458   10.4337 C.2       1 <0>        -0.1483
     22 C16         4.5000   -1.2894    9.8369 C.2       1 <0>         0.1140
     23 N5          5.5996   -0.8851   10.4196 N.2       1 <0>        -0.4889
     24 C17         5.5702   -0.2406   11.5822 C.2       1 <0>         0.2051
     25 S1          3.8131   -0.1788   11.9070 S.3       1 <0>         0.0700
     26 C18         6.6844    0.2863   12.3833 C.2       1 <0>        -0.1157
     27 C19         8.0417    0.2466   12.1215 C.2       1 <0>        -0.0822
     28 C20         8.9008    0.8154   13.0330 C.2       1 <0>        -0.1648
     29 C21         8.3941    1.3938   14.1529 C.2       1 <0>        -0.1474
     30 S2          6.6380    1.1513   13.9445 S.3       1 <0>         0.1014
     31 C22         4.5639   -2.0182    8.5193 C.3       1 <0>        -0.0895
     32 O3         -1.1190   -3.8725    0.1226 O.3       1 <0>        -0.3225
     33 C23        -1.7058   -4.3787   -1.0780 C.3       1 <0>         0.0298
     34 H1          2.3193    1.1211   -0.4334 H         1 <0>         0.0693
     35 H2          0.7543    1.8264   -0.9041 H         1 <0>         0.0662
     36 H3          1.1994    1.7159    0.8157 H         1 <0>         0.0676
     37 H4          0.0461   -0.1421   -2.1328 H         1 <0>         0.1260
     38 H5         -0.9974   -2.3678   -2.0164 H         1 <0>         0.1322
     39 H6          1.1039   -0.4040    1.9902 H         1 <0>         0.1542
     40 H7         -0.0201   -3.7621    2.3964 H         1 <0>         0.4116
     41 H8          0.2759   -3.7831    4.7154 H         1 <0>         0.4009
     42 H9          1.2538   -1.4528    5.9763 H         1 <0>         0.0803
     43 H10        -0.5186   -1.4769    6.1389 H         1 <0>         0.0777
     44 H11        -0.3941   -3.7325    7.1613 H         1 <0>         0.1164
     45 H12         1.3783   -3.7084    6.9987 H         1 <0>         0.1116
     46 H13        -1.3213   -1.1194   10.8804 H         1 <0>         0.1722
     47 H14         0.9299   -0.5008   11.6985 H         1 <0>         0.1535
     48 H15         8.4182   -0.2201   11.2232 H         1 <0>         0.1477
     49 H16         9.9668    0.8019   12.8603 H         1 <0>         0.1461
     50 H17         8.9197    1.8797   14.9617 H         1 <0>         0.1961
     51 H18         4.5138   -1.2978    7.7029 H         1 <0>         0.0795
     52 H19         5.4995   -2.5740    8.4566 H         1 <0>         0.0750
     53 H20         3.7247   -2.7098    8.4456 H         1 <0>         0.0929
     54 H21        -2.4935   -3.7027   -1.4105 H         1 <0>         0.0561
     55 H22        -0.9418   -4.4549   -1.8517 H         1 <0>         0.0561
     56 H23        -2.1296   -5.3648   -0.8876 H         1 <0>         0.1004
@<TRIPOS>BOND
     1    1    2 1
     2    1   34 1
     3    1   35 1
     4    1   36 1
     5    2    7 ar
     6    2    3 ar
     7    3    4 ar
     8    3   37 1
     9    4    5 ar
    10    4   38 1
    11    5    6 ar
    12    5   32 1
    13    6    7 ar
    14    6    8 1
    15    7   39 1
    16    8    9 am
    17    8   40 1
    18    9   10 2
    19    9   11 am
    20   11   12 1
    21   11   41 1
    22   12   13 1
    23   12   42 1
    24   12   43 1
    25   13   14 1
    26   13   44 1
    27   13   45 1
    28   14   20 1
    29   14   15 am
    30   15   16 2
    31   15   17 1
    32   17   18 2
    33   17   46 1
    34   18   19 1
    35   18   47 1
    36   19   20 2
    37   19   21 1
    38   21   25 1
    39   21   22 2
    40   22   23 1
    41   22   31 1
    42   23   24 2
    43   24   25 1
    44   24   26 1
    45   26   30 1
    46   26   27 2
    47   27   28 1
    48   27   48 1
    49   28   29 2
    50   28   49 1
    51   29   30 1
    52   29   50 1
    53   31   51 1
    54   31   52 1
    55   31   53 1
    56   32   33 1
    57   33   54 1
    58   33   55 1
    59   33   56 1
@<TRIPOS>MOLECULE
ZINC04222490
   79    82     0     0     0
SMALL
USER_CHARGES
3-fluoro-N-[hydroxy-(hydroxymethyl)-[[1-(hydroxymethyl)-3-methyl-butyl]carbamoylmethyl]-dimethyl-BLAHyl]-benzamide
@<TRIPOS>ATOM
      1 C1          0.2512    2.5766    2.9576 C.3       1 <0>        -0.1511
      2 C2         -0.7369    2.8648    1.8255 C.3       1 <0>        -0.0963
      3 C3         -0.8722    4.3774    1.6394 C.3       1 <0>        -0.1482
      4 C4         -0.2245    2.2351    0.5287 C.3       1 <0>        -0.1174
      5 C5         -0.2075    0.7121    0.6732 C.3       1 <0>         0.1522
      6 H1          0.3775    0.4368    1.5508 H         1 <0>         0.0998
      7 C6          0.4207    0.0883   -0.5747 C.3       1 <0>         0.0637
      8 O1         -0.2761    0.5427   -1.7366 O.3       1 <0>        -0.5672
      9 N1         -1.5791    0.2208    0.8270 N.am      1 <0>        -0.7255
     10 C7         -1.8093   -0.9498    1.4540 C.2       1 <0>         0.5163
     11 O2         -0.8810   -1.5965    1.8910 O.2       1 <0>        -0.5069
     12 C8         -3.2202   -1.4551    1.6122 C.3       1 <0>        -0.1338
     13 C9         -3.2025   -2.7936    2.3533 C.3       1 <0>         0.0200
     14 H2         -2.6308   -2.6904    3.2755 H         1 <0>         0.0950
     15 C10        -2.5565   -3.8519    1.4724 C.2       1 <0>         0.1000
     16 C11        -3.0819   -5.1027    1.4135 C.2       1 <0>        -0.2352
     17 S1         -1.9929   -5.9298    0.2853 S.3       1 <0>         0.1513
     18 C12        -0.9405   -4.5806   -0.0216 C.2       1 <0>         0.2740
     19 N2         -1.4743   -3.6381    0.7274 N.2       1 <0>        -0.5028
     20 N3          0.1759   -4.5138   -0.8453 N.am      1 <0>        -0.6035
     21 C13         0.5675   -5.6009   -1.5391 C.2       1 <0>         0.5628
     22 O3         -0.0563   -6.6399   -1.4439 O.2       1 <0>        -0.4913
     23 C14         1.7554   -5.5297   -2.4156 C.ar      1 <0>        -0.1052
     24 C15         2.4706   -4.3362   -2.5314 C.ar      1 <0>        -0.0947
     25 C16         3.5811   -4.2764   -3.3475 C.ar      1 <0>        -0.0927
     26 C17         3.9823   -5.3931   -4.0587 C.ar      1 <0>        -0.1199
     27 C18         3.2749   -6.5798   -3.9533 C.ar      1 <0>         0.0984
     28 C19         2.1634   -6.6537   -3.1352 C.ar      1 <0>        -0.0885
     29 F1          3.6720   -7.6661   -4.6515 F         1 <0>        -0.1296
     30 C20        -4.2779   -5.6215    2.1302 C.3       1 <0>        -0.0358
     31 C21        -4.6593   -4.6345    3.2511 C.3       1 <0>        -0.0539
     32 H3         -3.9592   -4.7252    4.0816 H         1 <0>         0.0879
     33 C22        -4.6404   -3.2117    2.6877 C.3       1 <0>        -0.0460
     34 C23        -5.1748   -2.2244    3.7307 C.3       1 <0>        -0.1107
     35 C24        -6.5920   -2.6093    4.1499 C.3       1 <0>        -0.1570
     36 C25        -6.5597   -4.0096    4.7696 C.3       1 <0>         0.1196
     37 H4         -5.8789   -4.0171    5.6208 H         1 <0>         0.0523
     38 C26        -6.0723   -5.0014    3.7152 C.3       1 <0>        -0.0420
     39 C27        -6.0583   -6.4081    4.3168 C.3       1 <0>        -0.1381
     40 C28        -7.0223   -4.9731    2.5162 C.3       1 <0>         0.0595
     41 O4         -8.3027   -5.4699    2.9111 O.3       1 <0>        -0.5508
     42 O5         -7.8729   -4.3739    5.1995 O.3       1 <0>        -0.5403
     43 C29        -5.4997   -3.1494    1.4234 C.3       1 <0>        -0.1684
     44 H5          0.3475    1.4990    3.0902 H         1 <0>         0.0562
     45 H6          1.2238    3.0003    2.7075 H         1 <0>         0.0542
     46 H7         -0.1139    3.0252    3.8815 H         1 <0>         0.0537
     47 H8         -1.7096    2.4411    2.0756 H         1 <0>         0.0699
     48 H9         -1.5761    4.5827    0.8329 H         1 <0>         0.0542
     49 H10        -1.2372    4.8260    2.5633 H         1 <0>         0.0543
     50 H11         0.1005    4.8011    1.3893 H         1 <0>         0.0542
     51 H12         0.7852    2.5921    0.3257 H         1 <0>         0.0737
     52 H13        -0.8812    2.5146   -0.2952 H         1 <0>         0.0763
     53 H14         0.3525   -0.9977   -0.5116 H         1 <0>         0.0495
     54 H15         1.4679    0.3834   -0.6404 H         1 <0>         0.0489
     55 H16         0.0691    0.1865   -2.5666 H         1 <0>         0.3759
     56 H17        -2.3216    0.7380    0.4775 H         1 <0>         0.3973
     57 H18        -3.8034   -0.7319    2.1823 H         1 <0>         0.0950
     58 H19        -3.6702   -1.5903    0.6287 H         1 <0>         0.0950
     59 H20         0.6736   -3.6847   -0.9212 H         1 <0>         0.4215
     60 H21         2.1567   -3.4621   -1.9803 H         1 <0>         0.1328
     61 H22         4.1366   -3.3543   -3.4343 H         1 <0>         0.1451
     62 H23         4.8503   -5.3396   -4.6991 H         1 <0>         0.1459
     63 H24         1.6123   -7.5788   -3.0528 H         1 <0>         0.1538
     64 H25        -5.1086   -5.7181    1.4311 H         1 <0>         0.0925
     65 H26        -4.0499   -6.5958    2.5625 H         1 <0>         0.0847
     66 H27        -5.1845   -1.2208    3.3056 H         1 <0>         0.0711
     67 H28        -4.5243   -2.2364    4.6052 H         1 <0>         0.0681
     68 H29        -7.2437   -2.6113    3.2762 H         1 <0>         0.0778
     69 H30        -6.9632   -1.8936    4.8835 H         1 <0>         0.0671
     70 H31        -5.3772   -6.4327    5.1674 H         1 <0>         0.0499
     71 H32        -7.0628   -6.6716    4.6480 H         1 <0>         0.0764
     72 H33        -5.7250   -7.1220    3.5637 H         1 <0>         0.0528
     73 H34        -7.1248   -3.9487    2.1579 H         1 <0>         0.0710
     74 H35        -6.6201   -5.5983    1.7191 H         1 <0>         0.0439
     75 H36        -8.9570   -5.4807    2.1992 H         1 <0>         0.3681
     76 H37        -8.2446   -3.7852    5.8705 H         1 <0>         0.3683
     77 H38        -5.6449   -4.1566    1.0328 H         1 <0>         0.0698
     78 H39        -6.4678   -2.7097    1.6633 H         1 <0>         0.0694
     79 H40        -4.9986   -2.5376    0.6732 H         1 <0>         0.0614
@<TRIPOS>BOND
     1    1    2 1
     2    1   44 1
     3    1   45 1
     4    1   46 1
     5    2    3 1
     6    2    4 1
     7    2   47 1
     8    3   48 1
     9    3   49 1
    10    3   50 1
    11    4    5 1
    12    4   51 1
    13    4   52 1
    14    5    6 1
    15    5    7 1
    16    5    9 1
    17    7    8 1
    18    7   53 1
    19    7   54 1
    20    8   55 1
    21    9   10 am
    22    9   56 1
    23   10   11 2
    24   10   12 1
    25   12   13 1
    26   12   57 1
    27   12   58 1
    28   13   14 1
    29   13   33 1
    30   13   15 1
    31   15   19 1
    32   15   16 2
    33   16   17 1
    34   16   30 1
    35   17   18 1
    36   18   19 2
    37   18   20 1
    38   20   21 am
    39   20   59 1
    40   21   22 2
    41   21   23 1
    42   23   28 ar
    43   23   24 ar
    44   24   25 ar
    45   24   60 1
    46   25   26 ar
    47   25   61 1
    48   26   27 ar
    49   26   62 1
    50   27   28 ar
    51   27   29 1
    52   28   63 1
    53   30   31 1
    54   30   64 1
    55   30   65 1
    56   31   32 1
    57   31   38 1
    58   31   33 1
    59   33   34 1
    60   33   43 1
    61   34   35 1
    62   34   66 1
    63   34   67 1
    64   35   36 1
    65   35   68 1
    66   35   69 1
    67   36   37 1
    68   36   38 1
    69   36   42 1
    70   38   39 1
    71   38   40 1
    72   39   70 1
    73   39   71 1
    74   39   72 1
    75   40   41 1
    76   40   73 1
    77   40   74 1
    78   41   75 1
    79   42   76 1
    80   43   77 1
    81   43   78 1
    82   43   79 1
@<TRIPOS>MOLECULE
ZINC12715992
   62    65     0     0     0
SMALL
USER_CHARGES
4-amino-N'-benzyl-N'-[(1S)-1-(4-fluorophenyl)-2-oxo-2-[[(2S)-tetrahydrofuran-2-yl]methylamino]ethyl]isothiazole-3,5-dicarboxamide
@<TRIPOS>ATOM
      1 C1          0.2673    2.6090   -4.6701 C.ar      1 <0>        -0.1230
      2 C2          0.1393    3.9542   -4.3785 C.ar      1 <0>        -0.1159
      3 C3          0.2904    4.3969   -3.0777 C.ar      1 <0>        -0.0915
      4 C4          0.5701    3.4944   -2.0686 C.ar      1 <0>        -0.0655
      5 C5          0.7037    2.1500   -2.3611 C.ar      1 <0>        -0.1179
      6 C6          0.5469    1.7066   -3.6610 C.ar      1 <0>        -0.1166
      7 C7          0.7353    3.9771   -0.6506 C.3       1 <0>         0.1475
      8 N1          0.4879    2.8684    0.2746 N.am      1 <0>        -0.5916
      9 C8         -0.8248    2.7222    0.9082 C.3       1 <0>         0.1818
     10 H1         -1.0970    1.6672    0.9409 H         1 <0>         0.1253
     11 C9         -0.7694    3.2703    2.3109 C.ar      1 <0>        -0.1163
     12 C10        -0.1671    4.4910    2.5521 C.ar      1 <0>        -0.0669
     13 C11        -0.1200    4.9969    3.8374 C.ar      1 <0>        -0.1503
     14 C12        -0.6669    4.2757    4.8851 C.ar      1 <0>         0.1098
     15 C13        -1.2652    3.0508    4.6431 C.ar      1 <0>        -0.1490
     16 C14        -1.3159    2.5493    3.3563 C.ar      1 <0>        -0.0672
     17 F1         -0.6173    4.7671    6.1426 F         1 <0>        -0.1370
     18 C15        -1.8543    3.4822    0.1122 C.2       1 <0>         0.5115
     19 O1         -1.5685    3.9297   -0.9782 O.2       1 <0>        -0.5067
     20 N2         -3.0926    3.6646    0.6121 N.am      1 <0>        -0.7149
     21 C16        -4.0934    4.4034   -0.1618 C.3       1 <0>         0.1297
     22 C17        -5.4032    4.4661    0.6265 C.3       1 <0>         0.0601
     23 H2         -5.7235    3.4632    0.9090 H         1 <0>         0.0765
     24 C18        -6.4994    5.1660   -0.2069 C.3       1 <0>        -0.1470
     25 C19        -7.2946    5.9871    0.8327 C.3       1 <0>        -0.1556
     26 C20        -6.5847    5.6860    2.1713 C.3       1 <0>         0.0441
     27 O2         -5.2445    5.2925    1.8003 O.3       1 <0>        -0.3670
     28 C21         1.4681    1.9830    0.5428 C.2       1 <0>         0.6286
     29 O3          1.2656    1.0676    1.3189 O.2       1 <0>        -0.5303
     30 C22         2.7765    2.1224   -0.0996 C.2       1 <0>        -0.3972
     31 C23         3.9308    1.3553    0.0680 C.2       1 <0>         0.2787
     32 C24         4.9862    1.7971   -0.7299 C.2       1 <0>        -0.0403
     33 N3          4.8064    2.8332   -1.5188 N.2       1 <0>        -0.4533
     34 S1          3.3190    3.3108   -1.3098 S.3       1 <0>         0.4773
     35 C25         6.2896    1.1090   -0.6894 C.2       1 <0>         0.6016
     36 O4          6.4488    0.1509    0.0424 O.2       1 <0>        -0.5432
     37 N4          7.3045    1.5418   -1.4633 N.am      1 <0>        -0.8311
     38 N5          4.0184    0.2725    0.9327 N.pl3     1 <0>        -0.8054
     39 H3          0.1485    2.2631   -5.6863 H         1 <0>         0.1175
     40 H4         -0.0792    4.6592   -5.1669 H         1 <0>         0.1198
     41 H5          0.1904    5.4478   -2.8499 H         1 <0>         0.1206
     42 H6          0.9266    1.4455   -1.5734 H         1 <0>         0.1127
     43 H7          0.6466    0.6556   -3.8888 H         1 <0>         0.1159
     44 H8          0.0240    4.7794   -0.4546 H         1 <0>         0.1224
     45 H9          1.7502    4.3487   -0.5092 H         1 <0>         0.0746
     46 H10         0.2631    5.0515    1.7353 H         1 <0>         0.1289
     47 H11         0.3469    5.9525    4.0250 H         1 <0>         0.1377
     48 H12        -1.6925    2.4875    5.4595 H         1 <0>         0.1395
     49 H13        -1.7822    1.5937    3.1673 H         1 <0>         0.1367
     50 H14        -3.3211    3.3067    1.4842 H         1 <0>         0.4054
     51 H15        -3.7334    5.4150   -0.3493 H         1 <0>         0.0802
     52 H16        -4.2648    3.8969   -1.1116 H         1 <0>         0.0853
     53 H17        -6.0514    5.8240   -0.9515 H         1 <0>         0.0811
     54 H18        -7.1442    4.4291   -0.6857 H         1 <0>         0.0818
     55 H19        -7.2397    7.0510    0.6021 H         1 <0>         0.0776
     56 H20        -8.3331    5.6576    0.8662 H         1 <0>         0.0791
     57 H21        -6.5592    6.5786    2.7964 H         1 <0>         0.0935
     58 H22        -7.0883    4.8723    2.6932 H         1 <0>         0.0613
     59 H23         7.1775    2.3060   -2.0471 H         1 <0>         0.4116
     60 H24         8.1619    1.0891   -1.4366 H         1 <0>         0.4093
     61 H25         3.2491    0.0118    1.4629 H         1 <0>         0.4162
     62 H26         4.8489   -0.2231    1.0066 H         1 <0>         0.4191
@<TRIPOS>BOND
     1    1    6 ar
     2    1    2 ar
     3    1   39 1
     4    2    3 ar
     5    2   40 1
     6    3    4 ar
     7    3   41 1
     8    4    5 ar
     9    4    7 1
    10    5    6 ar
    11    5   42 1
    12    6   43 1
    13    7    8 1
    14    7   44 1
    15    7   45 1
    16    8    9 1
    17    8   28 am
    18    9   10 1
    19    9   11 1
    20    9   18 1
    21   11   16 ar
    22   11   12 ar
    23   12   13 ar
    24   12   46 1
    25   13   14 ar
    26   13   47 1
    27   14   15 ar
    28   14   17 1
    29   15   16 ar
    30   15   48 1
    31   16   49 1
    32   18   19 2
    33   18   20 am
    34   20   21 1
    35   20   50 1
    36   21   22 1
    37   21   51 1
    38   21   52 1
    39   22   23 1
    40   22   27 1
    41   22   24 1
    42   24   25 1
    43   24   53 1
    44   24   54 1
    45   25   26 1
    46   25   55 1
    47   25   56 1
    48   26   27 1
    49   26   57 1
    50   26   58 1
    51   28   29 2
    52   28   30 1
    53   30   34 1
    54   30   31 2
    55   31   32 1
    56   31   38 1
    57   32   33 2
    58   32   35 1
    59   33   34 1
    60   35   36 2
    61   35   37 am
    62   37   59 1
    63   37   60 1
    64   38   61 1
    65   38   62 1
@<TRIPOS>MOLECULE
ZINC20912613
   57    60     0     0     0
SMALL
USER_CHARGES
2-[[4-amino-5-((N'E)-N'-(1-naphthylmethylene)hydrazino)-1,2,4-triazol-3-yl]sulfanyl]-N-(5-sec-butylsulfanyl-1,3,4-thiadiazol-2-yl)acetamide
@<TRIPOS>ATOM
      1 C1        -11.9545  -11.7739    1.6307 C.3       1 <0>        -0.1631
      2 C2        -11.2878  -11.8660    0.2567 C.3       1 <0>        -0.1098
      3 C3        -10.2459  -10.7540    0.1199 C.3       1 <0>        -0.0920
      4 H1         -9.4985  -10.9773    0.8955 H         1 <0>         0.1094
      5 C4         -9.4927  -10.9206   -1.2015 C.3       1 <0>        -0.1568
      6 S1        -11.0759   -9.1412    0.1435 S.3       1 <0>         0.0732
      7 C5         -9.7511   -7.9797    0.1279 C.2       1 <0>         0.0149
      8 N1         -8.4417   -8.1811    0.1045 N.2       1 <0>        -0.2564
      9 N2         -7.6200   -7.2244    0.0904 N.2       1 <0>        -0.2734
     10 C6         -8.0137   -5.9616    0.1104 C.2       1 <0>         0.2862
     11 S2         -9.7894   -6.1896    0.1392 S.3       1 <0>         0.0412
     12 N3         -7.2617   -4.7893    0.1046 N.am      1 <0>        -0.6203
     13 C7         -5.9156   -4.8523    0.0814 C.2       1 <0>         0.5342
     14 O1         -5.3591   -5.9299    0.0656 O.2       1 <0>        -0.4563
     15 C8         -5.1019   -3.5839    0.0752 C.3       1 <0>        -0.1450
     16 S3         -3.3401   -3.9974    0.0428 S.3       1 <0>         0.0880
     17 C9         -2.6457   -2.3780    0.0407 C.2       1 <0>         0.1696
     18 N4         -3.3171   -1.2511    0.0580 N.2       1 <0>        -0.3016
     19 N5         -2.3941   -0.1972    0.0530 N.2       1 <0>        -0.3146
     20 C10        -1.1894   -0.7140    0.0250 C.2       1 <0>         0.4881
     21 N6         -1.3139   -2.0757    0.0199 N.pl3     1 <0>        -0.2623
     22 N7         -0.2866   -2.9757   -0.0022 N.3       1 <0>        -0.7779
     23 N8          0.0022   -0.0041    0.0095 N.pl3     1 <0>        -0.5645
     24 N9         -0.0168    1.3967    0.0172 N.2       1 <0>        -0.1938
     25 C11         1.1003    2.0622    0.0026 C.2       1 <0>         0.1018
     26 C12         1.0803    3.5324    0.0107 C.ar      1 <0>        -0.0474
     27 C13         2.2623    4.2578    0.1075 C.ar      1 <0>        -0.0767
     28 C14         2.2404    5.6455    0.1092 C.ar      1 <0>        -0.1278
     29 C15         1.0756    6.3457    0.0292 C.ar      1 <0>        -0.0825
     30 C16        -0.1571    5.6784   -0.0651 C.ar      1 <0>        -0.0585
     31 C17        -0.1833    4.2623   -0.0767 C.ar      1 <0>        -0.0313
     32 C18        -1.4094    3.5936   -0.1715 C.ar      1 <0>        -0.1114
     33 C19        -2.5646    4.3130   -0.2511 C.ar      1 <0>        -0.1122
     34 C20        -2.5426    5.7057   -0.2395 C.ar      1 <0>        -0.1136
     35 C21        -1.3677    6.3877   -0.1489 C.ar      1 <0>        -0.1126
     36 H2        -12.7036  -12.5734    1.7291 H         1 <0>         0.0630
     37 H3        -12.4465  -10.7956    1.7347 H         1 <0>         0.0631
     38 H4        -11.1927  -11.8865    2.4162 H         1 <0>         0.0601
     39 H5        -10.7958  -12.8443    0.1527 H         1 <0>         0.0873
     40 H6        -12.0496  -11.7534   -0.5288 H         1 <0>         0.0734
     41 H7         -8.7436  -10.1211   -1.2999 H         1 <0>         0.0721
     42 H8        -10.2037  -10.8619   -2.0387 H         1 <0>         0.0646
     43 H9         -8.9893  -11.8985   -1.2158 H         1 <0>         0.0702
     44 H10        -7.7664   -3.8120    0.1190 H         1 <0>         0.4628
     45 H11        -5.3555   -2.9899   -0.8152 H         1 <0>         0.1398
     46 H12        -5.3250   -3.0007    0.9808 H         1 <0>         0.1398
     47 H13         0.7547   -2.6215   -0.0178 H         1 <0>         0.4376
     48 H14        -0.5006   -4.0547   -0.0044 H         1 <0>         0.4496
     49 H15         0.9621   -0.5410   -0.0088 H         1 <0>         0.4095
     50 H16         2.0602    1.5253   -0.0158 H         1 <0>         0.1310
     51 H17         3.2059    3.7372    0.1772 H         1 <0>         0.1303
     52 H18         3.1732    6.1851    0.1811 H         1 <0>         0.1276
     53 H19         1.0995    7.4254    0.0380 H         1 <0>         0.1278
     54 H20        -1.4400    2.5141   -0.1814 H         1 <0>         0.1719
     55 H21        -3.5100    3.7959   -0.3242 H         1 <0>         0.1246
     56 H22        -3.4715    6.2528   -0.3038 H         1 <0>         0.1223
     57 H23        -1.3660    7.4677   -0.1417 H         1 <0>         0.1269
@<TRIPOS>BOND
     1    1    2 1
     2    1   36 1
     3    1   37 1
     4    1   38 1
     5    2    3 1
     6    2   39 1
     7    2   40 1
     8    3    4 1
     9    3    5 1
    10    3    6 1
    11    5   41 1
    12    5   42 1
    13    5   43 1
    14    6    7 1
    15    7   11 1
    16    7    8 2
    17    8    9 1
    18    9   10 2
    19   10   11 1
    20   10   12 1
    21   12   13 am
    22   12   44 1
    23   13   14 2
    24   13   15 1
    25   15   16 1
    26   15   45 1
    27   15   46 1
    28   16   17 1
    29   17   21 1
    30   17   18 2
    31   18   19 1
    32   19   20 2
    33   20   21 1
    34   20   23 1
    35   21   22 1
    36   22   47 1
    37   22   48 1
    38   23   24 1
    39   23   49 1
    40   24   25 2
    41   25   26 1
    42   25   50 1
    43   26   31 ar
    44   26   27 ar
    45   27   28 ar
    46   27   51 1
    47   28   29 ar
    48   28   52 1
    49   29   30 ar
    50   29   53 1
    51   30   35 ar
    52   30   31 ar
    53   31   32 ar
    54   32   33 ar
    55   32   54 1
    56   33   34 ar
    57   33   55 1
    58   34   35 ar
    59   34   56 1
    60   35   57 1
@<TRIPOS>MOLECULE
ZINC12525272
   66    69     0     0     0
SMALL
USER_CHARGES

@<TRIPOS>ATOM
      1 C1         -3.1328   -2.3701    0.2584 C.3       1 <0>        -0.1504
      2 C2         -2.5685   -1.1163    0.9296 C.3       1 <0>        -0.1133
      3 C3         -2.0513   -1.4736    2.3246 C.3       1 <0>        -0.1468
      4 C4         -1.4193   -0.5599    0.0867 C.3       1 <0>         0.1111
      5 N1         -1.9418   -0.0798   -1.1950 N.am      1 <0>        -0.5081
      6 C5         -2.0172   -0.9557   -2.2986 C.2       1 <0>        -0.1555
      7 C6         -3.2393   -1.3003   -2.8389 C.2       1 <0>         0.5066
      8 N2         -3.2806   -2.1564   -3.9147 N.am      1 <0>        -0.5336
      9 C7         -2.1429   -2.6524   -4.4340 C.2       1 <0>         0.7136
     10 O1         -2.2006   -3.4081   -5.3849 O.2       1 <0>        -0.5305
     11 N3         -0.9430   -2.3274   -3.9210 N.am      1 <0>        -0.6587
     12 H1         -0.1373   -2.6982   -4.3137 H         1 <0>         0.4337
     13 C8         -0.8469   -1.4883   -2.8711 C.2       1 <0>         0.5680
     14 O2          0.2464   -1.1965   -2.4167 O.2       1 <0>        -0.5201
     15 C9         -4.5711   -2.5308   -4.4983 C.3       1 <0>         0.1496
     16 C10        -4.9350   -1.5506   -5.5836 C.ar      1 <0>        -0.1298
     17 C11        -5.6596   -0.4147   -5.2745 C.ar      1 <0>        -0.0963
     18 C12        -5.9934    0.4844   -6.2700 C.ar      1 <0>        -0.1190
     19 C13        -5.6020    0.2479   -7.5745 C.ar      1 <0>        -0.1037
     20 C14        -4.8766   -0.8875   -7.8835 C.ar      1 <0>        -0.1218
     21 C15        -4.5392   -1.7845   -6.8872 C.ar      1 <0>        -0.0865
     22 N4         -4.4016   -0.7944   -2.3079 N.pl3     1 <0>        -0.8196
     23 C16        -2.3509    1.1999   -1.3201 C.2       1 <0>         0.5276
     24 O3         -2.8576    1.5763   -2.3563 O.2       1 <0>        -0.5101
     25 C17        -2.1783    2.1617   -0.1729 C.3       1 <0>        -0.1474
     26 S1         -2.9542    3.7472   -0.5911 S.3       1 <0>         0.0829
     27 C18        -2.6703    4.7488    0.8305 C.2       1 <0>         0.2156
     28 N5         -2.0296    4.3760    1.9123 N.2       1 <0>        -0.4771
     29 C19        -2.0067    5.4076    2.7928 C.2       1 <0>         0.0638
     30 C20        -2.6592    6.4534    2.2275 C.2       1 <0>        -0.0638
     31 N6         -3.0748    6.0399    0.9851 N.pl3     1 <0>        -0.2880
     32 N7         -3.7678    6.7854    0.0740 N.3       1 <0>        -0.5916
     33 C21        -1.3791    5.3940    4.1368 C.ar      1 <0>        -0.0053
     34 C22        -1.4345    6.5274    4.9461 C.ar      1 <0>        -0.1106
     35 C23        -0.8493    6.5089    6.1958 C.ar      1 <0>        -0.1182
     36 C24        -0.2082    5.3685    6.6454 C.ar      1 <0>        -0.1186
     37 C25        -0.1502    4.2408    5.8465 C.ar      1 <0>        -0.1191
     38 C26        -0.7369    4.2460    4.5973 C.ar      1 <0>        -0.0927
     39 H2         -3.8678   -2.8346    0.9157 H         1 <0>         0.0549
     40 H3         -3.6094   -2.0952   -0.6826 H         1 <0>         0.0552
     41 H4         -2.3234   -3.0736    0.0638 H         1 <0>         0.0556
     42 H5         -3.3537   -0.3651    1.0147 H         1 <0>         0.0696
     43 H6         -1.2662   -2.2249    2.2396 H         1 <0>         0.0591
     44 H7         -1.6493   -0.5804    2.8028 H         1 <0>         0.0594
     45 H8         -2.8701   -1.8700    2.9251 H         1 <0>         0.0595
     46 H9         -0.9456    0.2656    0.6180 H         1 <0>         0.0861
     47 H10        -0.6857   -1.3461   -0.0915 H         1 <0>         0.0927
     48 H11        -4.5014   -3.5326   -4.9220 H         1 <0>         0.1221
     49 H12        -5.3380   -2.5164   -3.7237 H         1 <0>         0.0990
     50 H13        -5.9654   -0.2299   -4.2553 H         1 <0>         0.1168
     51 H14        -6.5601    1.3715   -6.0286 H         1 <0>         0.1258
     52 H15        -5.8634    0.9500   -8.3524 H         1 <0>         0.1252
     53 H16        -4.5711   -1.0725   -8.9027 H         1 <0>         0.1263
     54 H17        -3.9692   -2.6697   -7.1280 H         1 <0>         0.1323
     55 H18        -4.3637   -0.1433   -1.5900 H         1 <0>         0.4236
     56 H19        -5.2599   -1.0885   -2.6512 H         1 <0>         0.4054
     57 H20        -2.6497    1.7508    0.7198 H         1 <0>         0.1230
     58 H21        -1.1158    2.3157    0.0155 H         1 <0>         0.1280
     59 H22        -2.8188    7.4263    2.6684 H         1 <0>         0.1832
     60 H23        -4.7630    6.6837    0.2056 H         1 <0>         0.3641
     61 H24        -3.4944    7.7557    0.1179 H         1 <0>         0.3757
     62 H25        -1.9341    7.4185    4.5958 H         1 <0>         0.1201
     63 H26        -0.8916    7.3865    6.8238 H         1 <0>         0.1245
     64 H27         0.2490    5.3588    7.6238 H         1 <0>         0.1227
     65 H28         0.3519    3.3533    6.2024 H         1 <0>         0.1246
     66 H29        -0.6948    3.3635    3.9761 H         1 <0>         0.1294
@<TRIPOS>BOND
     1    1    2 1
     2    1   39 1
     3    1   40 1
     4    1   41 1
     5    2    3 1
     6    2    4 1
     7    2   42 1
     8    3   43 1
     9    3   44 1
    10    3   45 1
    11    4    5 1
    12    4   46 1
    13    4   47 1
    14    5    6 1
    15    5   23 am
    16    6   13 1
    17    6    7 2
    18    7    8 1
    19    7   22 1
    20    8    9 am
    21    8   15 1
    22    9   10 2
    23    9   11 am
    24   11   12 1
    25   11   13 am
    26   13   14 2
    27   15   16 1
    28   15   48 1
    29   15   49 1
    30   16   21 ar
    31   16   17 ar
    32   17   18 ar
    33   17   50 1
    34   18   19 ar
    35   18   51 1
    36   19   20 ar
    37   19   52 1
    38   20   21 ar
    39   20   53 1
    40   21   54 1
    41   22   55 1
    42   22   56 1
    43   23   24 2
    44   23   25 1
    45   25   26 1
    46   25   57 1
    47   25   58 1
    48   26   27 1
    49   27   31 1
    50   27   28 2
    51   28   29 1
    52   29   30 2
    53   29   33 1
    54   30   31 1
    55   30   59 1
    56   31   32 1
    57   32   60 1
    58   32   61 1
    59   33   38 ar
    60   33   34 ar
    61   34   35 ar
    62   34   62 1
    63   35   36 ar
    64   35   63 1
    65   36   37 ar
    66   36   64 1
    67   37   38 ar
    68   37   65 1
    69   38   66 1
@<TRIPOS>MOLECULE
ZINC20611581
   59    63     0     0     0
SMALL
USER_CHARGES

@<TRIPOS>ATOM
      1 C1          0.8593    1.6633   -0.0471 C.3       1 <0>        -0.1220
      2 C2          0.6159    0.1762   -0.0275 C.ar      1 <0>        -0.0945
      3 C3          0.4659   -0.5124   -1.2151 C.ar      1 <0>         0.0023
      4 C4          0.2433   -1.8781   -1.2068 C.ar      1 <0>        -0.1240
      5 C5          0.1699   -2.5563   -0.0028 C.ar      1 <0>        -0.0448
      6 C6          0.3175   -1.8730    1.1831 C.ar      1 <0>        -0.1122
      7 C7          0.5488   -0.5000    1.1876 C.ar      1 <0>         0.1690
      8 N1          0.6723   -0.0355    2.4989 N.am      1 <0>        -0.6508
      9 C8          0.5421   -1.0256    3.4030 C.2       1 <0>         0.5390
     10 O1          0.6034   -0.9172    4.6095 O.2       1 <0>        -0.4608
     11 C9          0.2929   -2.2893    2.6265 C.3       1 <0>         0.1237
     12 C10         1.3692   -3.3395    2.9274 C.3       1 <0>        -0.1367
     13 H1          2.2053   -3.2950    2.2296 H         1 <0>         0.1514
     14 C11         0.6142   -4.6973    2.8789 C.3       1 <0>        -0.1478
     15 H2          1.0511   -5.3986    2.1679 H         1 <0>         0.1527
     16 C12        -0.8430   -4.3284    2.5290 C.3       1 <0>         0.0866
     17 H3         -1.0090   -4.4162    1.4553 H         1 <0>         0.1252
     18 N2         -0.9932   -2.9147    2.9865 N.3       1 <0>        -0.6227
     19 C13        -1.8175   -5.2274    3.2925 C.3       1 <0>        -0.1095
     20 C14        -3.2481   -4.9300    2.8386 C.3       1 <0>        -0.1371
     21 C15        -4.2080   -5.8155    3.5906 C.2       1 <0>         0.5110
     22 O2         -3.7892   -6.6066    4.4090 O.2       1 <0>        -0.5365
     23 N3         -5.5319   -5.7284    3.3537 N.am      1 <0>        -0.8589
     24 C16         0.6912   -5.1908    4.3054 C.2       1 <0>         0.5262
     25 O3          0.2145   -6.2277    4.7146 O.2       1 <0>        -0.4421
     26 N4          1.3671   -4.3051    5.0465 N.am      1 <0>        -0.5289
     27 C17         1.8070   -3.2192    4.3700 C.2       1 <0>         0.5282
     28 O4          2.4440   -2.2980    4.8340 O.2       1 <0>        -0.4271
     29 C18         1.6074   -4.4886    6.4165 C.ar      1 <0>         0.1120
     30 C19         1.0737   -3.6001    7.3402 C.ar      1 <0>        -0.0781
     31 C20         1.3105   -3.7810    8.6883 C.ar      1 <0>        -0.1115
     32 C21         2.0820   -4.8503    9.1200 C.ar      1 <0>         0.0987
     33 C22         2.6156   -5.7385    8.1973 C.ar      1 <0>        -0.1063
     34 C23         2.3742   -5.5619    6.8494 C.ar      1 <0>        -0.0832
     35 O5          2.3157   -5.0275   10.4476 O.3       1 <0>        -0.2980
     36 C24         1.3280   -5.5405   11.1984 C.2       1 <0>         0.4568
     37 O6          0.3108   -5.9293   10.6749 O.2       1 <0>        -0.4901
     38 C25         1.4881   -5.6314   12.6941 C.3       1 <0>        -0.1434
     39 Cl1         0.5575    0.3390   -2.7251 Cl        1 <0>        -0.0499
     40 H4          1.9314    1.8555   -0.0884 H         1 <0>         0.0798
     41 H5          0.3781    2.0987   -0.9229 H         1 <0>         0.0818
     42 H6          0.4444    2.1113    0.8558 H         1 <0>         0.0670
     43 H7          0.1267   -2.4133   -2.1376 H         1 <0>         0.1452
     44 H8         -0.0036   -3.6222    0.0065 H         1 <0>         0.1400
     45 H9          0.8334    0.8923    2.7316 H         1 <0>         0.4202
     46 H10        -1.1552   -2.8617    3.9810 H         1 <0>         0.3529
     47 H11        -1.5821   -6.2724    3.0906 H         1 <0>         0.0981
     48 H12        -1.7281   -5.0348    4.3616 H         1 <0>         0.0753
     49 H13        -3.4835   -3.8851    3.0405 H         1 <0>         0.1020
     50 H14        -3.3375   -5.1227    1.7695 H         1 <0>         0.0986
     51 H15        -5.8669   -5.0957    2.6992 H         1 <0>         0.4014
     52 H16        -6.1498   -6.2984    3.8378 H         1 <0>         0.4015
     53 H17         0.4737   -2.7673    7.0042 H         1 <0>         0.1384
     54 H18         0.8954   -3.0898    9.4069 H         1 <0>         0.1378
     55 H19         3.2164   -6.5705    8.5337 H         1 <0>         0.1421
     56 H20         2.7855   -6.2560    6.1315 H         1 <0>         0.1365
     57 H21         1.1167   -4.7164   13.1555 H         1 <0>         0.1094
     58 H22         0.9210   -6.4835   13.0690 H         1 <0>         0.1077
     59 H23         2.5422   -5.7602   12.9395 H         1 <0>         0.0980
@<TRIPOS>BOND
     1    1    2 1
     2    1   40 1
     3    1   41 1
     4    1   42 1
     5    2    7 ar
     6    2    3 ar
     7    3    4 ar
     8    3   39 1
     9    4    5 ar
    10    4   43 1
    11    5    6 ar
    12    5   44 1
    13    6   11 1
    14    6    7 ar
    15    7    8 1
    16    8    9 am
    17    8   45 1
    18    9   10 2
    19    9   11 1
    20   11   18 1
    21   11   12 1
    22   12   13 1
    23   12   27 1
    24   12   14 1
    25   14   15 1
    26   14   16 1
    27   14   24 1
    28   16   17 1
    29   16   18 1
    30   16   19 1
    31   18   46 1
    32   19   20 1
    33   19   47 1
    34   19   48 1
    35   20   21 1
    36   20   49 1
    37   20   50 1
    38   21   22 2
    39   21   23 am
    40   23   51 1
    41   23   52 1
    42   24   25 2
    43   24   26 am
    44   26   27 am
    45   26   29 1
    46   27   28 2
    47   29   34 ar
    48   29   30 ar
    49   30   31 ar
    50   30   53 1
    51   31   32 ar
    52   31   54 1
    53   32   33 ar
    54   32   35 1
    55   33   34 ar
    56   33   55 1
    57   34   56 1
    58   35   36 1
    59   36   37 2
    60   36   38 1
    61   38   57 1
    62   38   58 1
    63   38   59 1
@<TRIPOS>MOLECULE
ZINC03769892
   54    57     0     0     0
SMALL
USER_CHARGES
methyl 2-[5-amino-4-cyano-3-(4-fluorophenyl)-7-oxo-2-(p-tolylcarbamoyl)-9-thia-6-azabicyclo[4.3.0]nona-1,4-dien-8-ylidene]acetate
@<TRIPOS>ATOM
      1 C1          6.3937    1.5703  -10.4939 C.3       1 <0>        -0.1150
      2 C2          5.8224    0.4152   -9.7125 C.ar      1 <0>        -0.0975
      3 C3          6.3283   -0.8587   -9.8953 C.ar      1 <0>        -0.1026
      4 C4          5.8067   -1.9195   -9.1811 C.ar      1 <0>        -0.1382
      5 C5          4.7733   -1.7056   -8.2781 C.ar      1 <0>         0.1359
      6 C6          4.2639   -0.4256   -8.1008 C.ar      1 <0>        -0.1110
      7 C7          4.7932    0.6316   -8.8146 C.ar      1 <0>        -0.1028
      8 N1          4.2430   -2.7774   -7.5534 N.am      1 <0>        -0.6617
      9 C8          3.8328   -2.5944   -6.2827 C.2       1 <0>         0.5733
     10 O1          3.8504   -1.4794   -5.7913 O.2       1 <0>        -0.5066
     11 C9          3.3839   -3.6915   -5.5229 C.2       1 <0>        -0.1487
     12 C10         2.9675   -3.5262   -4.2430 C.2       1 <0>         0.1251
     13 N2          2.5136   -4.5491   -3.4339 N.am      1 <0>        -0.5019
     14 C11         2.1312   -4.2354   -2.1794 C.2       1 <0>         0.5531
     15 O2          1.7221   -5.0895   -1.4186 O.2       1 <0>        -0.4469
     16 C12         2.2241   -2.8185   -1.7564 C.2       1 <0>        -0.1630
     17 C13         1.9060   -2.2513   -0.5636 C.2       1 <0>        -0.0250
     18 C14         2.0816   -0.8121   -0.3680 C.2       1 <0>         0.4858
     19 O3          2.5123   -0.1235   -1.2731 O.2       1 <0>        -0.4733
     20 O4          1.7657   -0.2488    0.8166 O.3       1 <0>        -0.3384
     21 C15         1.9624    1.1614    0.9374 C.3       1 <0>         0.0325
     22 S1          2.8597   -2.0570   -3.2407 S.3       1 <0>         0.2206
     23 C16         2.4701   -5.8528   -3.9428 C.2       1 <0>         0.4660
     24 C17         2.8496   -6.1807   -5.1971 C.2       1 <0>        -0.1954
     25 C18         3.3537   -5.0860   -6.1157 C.3       1 <0>         0.0765
     26 H1          4.3652   -5.3457   -6.4280 H         1 <0>         0.1040
     27 C19         2.4773   -5.0584   -7.3413 C.ar      1 <0>        -0.1071
     28 C20         1.1472   -4.6982   -7.2313 C.ar      1 <0>        -0.0656
     29 C21         0.3440   -4.6670   -8.3555 C.ar      1 <0>        -0.1453
     30 C22         0.8692   -5.0072   -9.5906 C.ar      1 <0>         0.1071
     31 C23         2.2002   -5.3732   -9.6987 C.ar      1 <0>        -0.1427
     32 C24         3.0028   -5.3987   -8.5739 C.ar      1 <0>        -0.0966
     33 F1          0.0836   -4.9824  -10.6894 F         1 <0>        -0.1356
     34 C25         2.7769   -7.5372   -5.6502 C.1       1 <0>         0.2761
     35 N3          2.7192   -8.6133   -6.0097 N.1       1 <0>        -0.4175
     36 N4          2.0151   -6.8548   -3.1204 N.pl3     1 <0>        -0.8503
     37 H2          5.8448    1.6833  -11.4288 H         1 <0>         0.0701
     38 H3          6.3048    2.4849   -9.9076 H         1 <0>         0.0663
     39 H4          7.4445    1.3782  -10.7104 H         1 <0>         0.0659
     40 H5          7.1319   -1.0244  -10.5976 H         1 <0>         0.1260
     41 H6          6.2018   -2.9143   -9.3249 H         1 <0>         0.1247
     42 H7          3.4574   -0.2567   -7.4027 H         1 <0>         0.1397
     43 H8          4.3999    1.6276   -8.6746 H         1 <0>         0.1254
     44 H9          4.1703   -3.6526   -7.9652 H         1 <0>         0.4103
     45 H10         1.5235   -2.8628    0.2402 H         1 <0>         0.1795
     46 H11         3.0137    1.3971    0.7721 H         1 <0>         0.0668
     47 H12         1.3533    1.6780    0.1957 H         1 <0>         0.0668
     48 H13         1.6703    1.4847    1.9365 H         1 <0>         0.1091
     49 H14         0.7366   -4.4371   -6.2672 H         1 <0>         0.1286
     50 H15        -0.6939   -4.3810   -8.2701 H         1 <0>         0.1389
     51 H16         2.6109   -5.6391  -10.6615 H         1 <0>         0.1413
     52 H17         4.0410   -5.6842   -8.6580 H         1 <0>         0.1385
     53 H18         1.3791   -6.6531   -2.4162 H         1 <0>         0.4183
     54 H19         2.3297   -7.7640   -3.2439 H         1 <0>         0.4167
@<TRIPOS>BOND
     1    1    2 1
     2    1   37 1
     3    1   38 1
     4    1   39 1
     5    2    7 ar
     6    2    3 ar
     7    3    4 ar
     8    3   40 1
     9    4    5 ar
    10    4   41 1
    11    5    6 ar
    12    5    8 1
    13    6    7 ar
    14    6   42 1
    15    7   43 1
    16    8    9 am
    17    8   44 1
    18    9   10 2
    19    9   11 1
    20   11   25 1
    21   11   12 2
    22   12   22 1
    23   12   13 1
    24   13   14 am
    25   13   23 1
    26   14   15 2
    27   14   16 1
    28   16   17 2
    29   16   22 1
    30   17   18 1
    31   17   45 1
    32   18   19 2
    33   18   20 1
    34   20   21 1
    35   21   46 1
    36   21   47 1
    37   21   48 1
    38   23   24 2
    39   23   36 1
    40   24   25 1
    41   24   34 1
    42   25   26 1
    43   25   27 1
    44   27   32 ar
    45   27   28 ar
    46   28   29 ar
    47   28   49 1
    48   29   30 ar
    49   29   50 1
    50   30   31 ar
    51   30   33 1
    52   31   32 ar
    53   31   51 1
    54   32   52 1
    55   34   35 3
    56   36   53 1
    57   36   54 1
@<TRIPOS>MOLECULE
ZINC17445976
   49    52     0     0     0
SMALL
USER_CHARGES
4-[(5,6-dihydro-4H-cyclopenta[d]thiophene-2-carbonylamino)carbamoyl]-N-(2-fluorophenyl)benzenesulfonamide
@<TRIPOS>ATOM
      1 C1          4.5829   -2.1538   -2.8532 C.ar      1 <0>        -0.0971
      2 C2          4.3025   -1.7779   -4.1539 C.ar      1 <0>        -0.1020
      3 C3          2.9979   -1.7819   -4.6125 C.ar      1 <0>        -0.1302
      4 C4          1.9691   -2.1622   -3.7703 C.ar      1 <0>         0.0819
      5 C5          2.2488   -2.5412   -2.4617 C.ar      1 <0>         0.1198
      6 C6          3.5597   -2.5308   -2.0048 C.ar      1 <0>        -0.1501
      7 N1          1.2115   -2.9261   -1.6065 N.pl3     1 <0>        -1.0494
      8 S1          1.2776   -2.5385    0.0021 S.o2      1 <0>         2.6918
      9 O1          2.5267   -3.0150    0.4837 O.2       1 <0>        -0.9386
     10 O2          0.0386   -2.9424    0.5685 O.2       1 <0>        -0.9382
     11 C7          1.3327   -0.7808    0.1126 C.ar      1 <0>        -0.6543
     12 C8          0.1554   -0.0588    0.1967 C.ar      1 <0>        -0.0193
     13 C9          0.1915    1.3175    0.2839 C.ar      1 <0>        -0.0733
     14 C10         1.4192    1.9815    0.2873 C.ar      1 <0>        -0.0677
     15 C11         2.6031    1.2471    0.2026 C.ar      1 <0>        -0.1059
     16 C12         2.5530   -0.1288    0.1154 C.ar      1 <0>        -0.0195
     17 C13         1.4654    3.4564    0.3800 C.2       1 <0>         0.5580
     18 O3          0.4328    4.0933    0.4536 O.2       1 <0>        -0.5199
     19 N2          2.6525    4.0945    0.3830 N.am      1 <0>        -0.5108
     20 N3          2.6963    5.4921    0.4708 N.am      1 <0>        -0.5172
     21 C14         3.8834    6.1303    0.4738 C.2       1 <0>         0.6159
     22 O4          4.9173    5.4925    0.4002 O.2       1 <0>        -0.5219
     23 C15         3.9292    7.5925    0.5658 C.2       1 <0>        -0.2526
     24 C16         5.0258    8.4292    0.5843 C.2       1 <0>        -0.0347
     25 C17         4.8050    9.8035    0.6789 C.2       1 <0>        -0.1668
     26 C18         3.5096   10.2111    0.7483 C.2       1 <0>        -0.1740
     27 S2          2.5817    8.7552    0.6750 S.3       1 <0>         0.1857
     28 C19         3.3970   11.7074    0.8518 C.3       1 <0>        -0.0413
     29 C20         4.8058   12.1764    1.2762 C.3       1 <0>        -0.1174
     30 C21         5.6974   11.0467    0.7253 C.3       1 <0>        -0.0599
     31 F1          0.6944   -2.1653   -4.2179 F         1 <0>        -0.1330
     32 H1          5.6030   -2.1491   -2.4986 H         1 <0>         0.1406
     33 H2          5.1043   -1.4801   -4.8133 H         1 <0>         0.1383
     34 H3          2.7823   -1.4874   -5.6289 H         1 <0>         0.1421
     35 H4          3.7799   -2.8202   -0.9879 H         1 <0>         0.1707
     36 H5          0.4532   -3.4201   -1.9556 H         1 <0>         0.4324
     37 H6         -0.7939   -0.5738    0.1944 H         1 <0>         0.1535
     38 H7         -0.7283    1.8803    0.3450 H         1 <0>         0.1533
     39 H8          3.5564    1.7549    0.2054 H         1 <0>         0.1409
     40 H9          3.4683   -0.6982    0.0495 H         1 <0>         0.1518
     41 H10         3.4766    3.5862    0.3243 H         1 <0>         0.4350
     42 H11         1.8722    6.0004    0.5296 H         1 <0>         0.4338
     43 H12         6.0282    8.0311    0.5275 H         1 <0>         0.1472
     44 H13         2.6614   11.9818    1.6079 H         1 <0>         0.0854
     45 H14         3.1287   12.1360   -0.1138 H         1 <0>         0.0929
     46 H15         4.8845   12.2405    2.3614 H         1 <0>         0.0785
     47 H16         5.0549   13.1306    0.8120 H         1 <0>         0.0867
     48 H17         6.5448   10.8776    1.3896 H         1 <0>         0.0772
     49 H18         6.0470   11.2971   -0.2763 H         1 <0>         0.0819
@<TRIPOS>BOND
     1    1    6 ar
     2    1    2 ar
     3    1   32 1
     4    2    3 ar
     5    2   33 1
     6    3    4 ar
     7    3   34 1
     8    4    5 ar
     9    4   31 1
    10    5    6 ar
    11    5    7 1
    12    6   35 1
    13    7    8 1
    14    7   36 1
    15    8    9 2
    16    8   10 2
    17    8   11 1
    18   11   16 ar
    19   11   12 ar
    20   12   13 ar
    21   12   37 1
    22   13   14 ar
    23   13   38 1
    24   14   15 ar
    25   14   17 1
    26   15   16 ar
    27   15   39 1
    28   16   40 1
    29   17   18 2
    30   17   19 am
    31   19   20 1
    32   19   41 1
    33   20   21 am
    34   20   42 1
    35   21   22 2
    36   21   23 1
    37   23   27 1
    38   23   24 2
    39   24   25 1
    40   24   43 1
    41   25   30 1
    42   25   26 2
    43   26   27 1
    44   26   28 1
    45   28   29 1
    46   28   44 1
    47   28   45 1
    48   29   30 1
    49   29   46 1
    50   29   47 1
    51   30   48 1
    52   30   49 1
@<TRIPOS>MOLECULE
ZINC23259760
   59    62     0     0     0
SMALL
USER_CHARGES

@<TRIPOS>ATOM
      1 C1         -0.0184    1.5028    0.0103 C.3       1 <0>        -0.1160
      2 C2          0.0021   -0.0041    0.0020 C.ar      1 <0>        -0.0812
      3 C3          0.0057   -0.6864   -1.2013 C.ar      1 <0>        -0.1228
      4 C4          0.0244   -2.0662   -1.2152 C.ar      1 <0>        -0.0976
      5 C5          0.0401   -2.7725   -0.0132 C.ar      1 <0>        -0.0353
      6 C6          0.0368   -2.0793    1.1964 C.ar      1 <0>        -0.0714
      7 C7          0.0229   -0.6994    1.1978 C.ar      1 <0>        -0.1194
      8 C8          0.0597   -4.2547   -0.0214 C.2       1 <0>        -0.0258
      9 C9         -0.9880   -4.9562   -0.5175 C.2       1 <0>        -0.1466
     10 S1         -0.4865   -6.6532   -0.3037 S.3       1 <0>         0.1548
     11 C10         1.1020   -6.3842    0.4393 C.2       1 <0>         0.1012
     12 C11         1.2093   -4.9852    0.4988 C.2       1 <0>        -0.2372
     13 C12         2.4237   -4.4799    1.0635 C.2       1 <0>         0.5545
     14 O1          2.6074   -3.2788    1.1623 O.2       1 <0>        -0.5077
     15 N1          3.3595   -5.3510    1.4841 N.am      1 <0>        -0.6359
     16 H1          4.1844   -5.0143    1.8676 H         1 <0>         0.4198
     17 C13         3.1714   -6.6918    1.3825 C.2       1 <0>         0.4063
     18 N2          2.0698   -7.1831    0.8814 N.2       1 <0>        -0.4589
     19 C14         4.2470   -7.6294    1.8673 C.3       1 <0>         0.0974
     20 N3          3.8184   -9.0182    1.6545 N.3       1 <0>        -0.5117
     21 C15         2.6617   -9.3473    2.4982 C.3       1 <0>         0.0112
     22 C16         4.9262   -9.9533    1.8919 C.3       1 <0>         0.1124
     23 H2          5.2760   -9.8490    2.9190 H         1 <0>         0.0604
     24 C17         6.0728   -9.6407    0.9284 C.3       1 <0>        -0.1481
     25 C18         4.4497  -11.3648    1.6645 C.ar      1 <0>        -0.0203
     26 C19         3.6015  -11.6464    0.6099 C.ar      1 <0>        -0.1117
     27 C20         3.1643  -12.9412    0.4013 C.ar      1 <0>        -0.0212
     28 C21         3.5758  -13.9543    1.2470 C.ar      1 <0>        -0.6748
     29 C22         4.4247  -13.6728    2.3010 C.ar      1 <0>        -0.0184
     30 C23         4.8652  -12.3788    2.5071 C.ar      1 <0>        -0.1363
     31 S2          3.0176  -15.6044    0.9818 S.o2      1 <0>         2.6996
     32 O2          3.1102  -16.2705    2.2336 O.2       1 <0>        -0.9639
     33 O3          1.7987  -15.5094    0.2577 O.2       1 <0>        -0.9622
     34 N4          4.1106  -16.3351   -0.0251 N.pl3     1 <0>        -1.2500
     35 C24        -2.2702   -4.4282   -1.1077 C.3       1 <0>        -0.0692
     36 H3          1.0042    1.8801    0.0026 H         1 <0>         0.0702
     37 H4         -0.5455    1.8639   -0.8728 H         1 <0>         0.0663
     38 H5         -0.5286    1.8543    0.9071 H         1 <0>         0.0659
     39 H6         -0.0064   -0.1382   -2.1318 H         1 <0>         0.1221
     40 H7          0.0265   -2.5979   -2.1552 H         1 <0>         0.1194
     41 H8          0.0488   -2.6212    2.1306 H         1 <0>         0.1130
     42 H9          0.0241   -0.1613    2.1342 H         1 <0>         0.1205
     43 H10         5.1672   -7.4441    1.3132 H         1 <0>         0.1208
     44 H11         4.4229   -7.4621    2.9299 H         1 <0>         0.0785
     45 H12         1.8324   -8.6841    2.2525 H         1 <0>         0.0953
     46 H13         2.3651  -10.3811    2.3208 H         1 <0>         0.0753
     47 H14         2.9295   -9.2210    3.5472 H         1 <0>         0.0237
     48 H15         6.4175   -8.6198    1.0929 H         1 <0>         0.0638
     49 H16         6.8948  -10.3345    1.1045 H         1 <0>         0.0683
     50 H17         5.7231   -9.7450   -0.0987 H         1 <0>         0.0725
     51 H18         3.2800  -10.8549   -0.0508 H         1 <0>         0.1465
     52 H19         2.5011  -13.1611   -0.4222 H         1 <0>         0.1436
     53 H20         4.7458  -14.4642    2.9620 H         1 <0>         0.1431
     54 H21         5.5314  -12.1595    3.3284 H         1 <0>         0.1327
     55 H22         4.8809  -15.8403   -0.3457 H         1 <0>         0.4167
     56 H23         3.9806  -17.2578   -0.2943 H         1 <0>         0.4214
     57 H24        -2.1458   -4.2896   -2.1816 H         1 <0>         0.0829
     58 H25        -3.0749   -5.1402   -0.9241 H         1 <0>         0.0782
     59 H26        -2.5173   -3.4731   -0.6442 H         1 <0>         0.0853
@<TRIPOS>BOND
     1    1    2 1
     2    1   36 1
     3    1   37 1
     4    1   38 1
     5    2    7 ar
     6    2    3 ar
     7    3    4 ar
     8    3   39 1
     9    4    5 ar
    10    4   40 1
    11    5    6 ar
    12    5    8 1
    13    6    7 ar
    14    6   41 1
    15    7   42 1
    16    8   12 1
    17    8    9 2
    18    9   10 1
    19    9   35 1
    20   10   11 1
    21   11   18 1
    22   11   12 2
    23   12   13 1
    24   13   14 2
    25   13   15 am
    26   15   16 1
    27   15   17 1
    28   17   18 2
    29   17   19 1
    30   19   20 1
    31   19   43 1
    32   19   44 1
    33   20   21 1
    34   20   22 1
    35   21   45 1
    36   21   46 1
    37   21   47 1
    38   22   23 1
    39   22   24 1
    40   22   25 1
    41   24   48 1
    42   24   49 1
    43   24   50 1
    44   25   30 ar
    45   25   26 ar
    46   26   27 ar
    47   26   51 1
    48   27   28 ar
    49   27   52 1
    50   28   29 ar
    51   28   31 1
    52   29   30 ar
    53   29   53 1
    54   30   54 1
    55   31   32 2
    56   31   33 2
    57   31   34 1
    58   34   55 1
    59   34   56 1
    60   35   57 1
    61   35   58 1
    62   35   59 1
@<TRIPOS>MOLECULE
ZINC39966345
   56    59     0     0     0
SMALL
USER_CHARGES

@<TRIPOS>ATOM
      1 C1         -0.1270    1.5054    0.0220 C.3       1 <0>        -0.0994
      2 C2         -0.1732   -0.0009    0.0177 C.2       1 <0>        -0.0706
      3 C3         -0.3466   -0.7074   -1.1145 C.2       1 <0>        -0.2173
      4 S1         -0.3222   -2.3953   -0.5519 S.3       1 <0>         0.2827
      5 C4         -0.0941   -2.1556    1.0930 C.2       1 <0>         0.0360
      6 C5         -0.0280   -0.7766    1.2282 C.2       1 <0>        -0.2323
      7 C6          0.1732   -0.1387    2.5331 C.2       1 <0>         0.5857
      8 O1         -0.7868    0.1576    3.2201 O.2       1 <0>        -0.5326
      9 N1          1.4212    0.1194    2.9717 N.am      1 <0>        -0.8472
     10 N2          0.0103   -3.1157    2.0879 N.am      1 <0>        -0.6126
     11 C7         -0.0711   -4.4237    1.7734 C.2       1 <0>         0.5328
     12 O2         -0.2357   -4.7610    0.6201 O.2       1 <0>        -0.4819
     13 C8          0.0424   -5.4672    2.8548 C.3       1 <0>        -0.1441
     14 S2         -0.1057   -7.1188    2.1193 S.3       1 <0>         0.0877
     15 C9          0.0454   -8.2122    3.4927 C.2       1 <0>         0.1405
     16 N3          0.2181   -7.8672    4.7474 N.2       1 <0>        -0.2915
     17 N4          0.2878   -8.9149    5.4882 N.2       1 <0>        -0.2637
     18 C10         0.1639   -9.9944    4.7516 C.2       1 <0>         0.2463
     19 N5         -0.0012   -9.5784    3.4511 N.pl3     1 <0>        -0.4552
     20 C11        -0.1850  -10.4226    2.2679 C.3       1 <0>         0.0685
     21 C12         0.1904  -11.3930    5.2304 C.2       1 <0>        -0.0433
     22 C13         0.9694  -12.3187    4.6001 C.2       1 <0>        -0.1624
     23 S3          0.6363  -13.7896    5.5556 S.3       1 <0>         0.0801
     24 C14        -0.4982  -13.0752    6.7185 C.2       1 <0>        -0.1388
     25 C15        -0.5846  -11.7753    6.3440 C.2       1 <0>        -0.0892
     26 C16        -1.4844  -10.7808    7.0726 C.3       1 <0>        -0.0652
     27 C17        -1.6831  -11.2215    8.5178 C.3       1 <0>        -0.1239
     28 C18        -2.8965  -12.1410    8.6402 C.3       1 <0>        -0.1227
     29 C19        -2.6737  -13.4140    7.8300 C.3       1 <0>        -0.1137
     30 C20        -1.1849  -13.7555    7.8583 C.3       1 <0>        -0.0449
     31 C21        -0.5202   -0.1929   -2.5203 C.3       1 <0>        -0.0658
     32 H1          0.9016    1.8378   -0.1187 H         1 <0>         0.0726
     33 H2         -0.7471    1.8903   -0.7875 H         1 <0>         0.0747
     34 H3         -0.5019    1.8777    0.9754 H         1 <0>         0.0651
     35 H4          2.1863   -0.1168    2.4242 H         1 <0>         0.4037
     36 H5          1.5543    0.5413    3.8349 H         1 <0>         0.4039
     37 H6          0.1420   -2.8460    3.0103 H         1 <0>         0.4230
     38 H7          1.0097   -5.3749    3.3487 H         1 <0>         0.1355
     39 H8         -0.7537   -5.3219    3.5849 H         1 <0>         0.1359
     40 H9          0.7882  -10.7366    1.8908 H         1 <0>         0.0886
     41 H10        -0.7715  -11.3013    2.5361 H         1 <0>         0.0970
     42 H11        -0.7087   -9.8579    1.4965 H         1 <0>         0.0982
     43 H12         1.6180  -12.1944    3.7456 H         1 <0>         0.1877
     44 H13        -1.0215   -9.7941    7.0555 H         1 <0>         0.0925
     45 H14        -2.4516  -10.7339    6.5723 H         1 <0>         0.0695
     46 H15        -0.7940  -11.7534    8.8563 H         1 <0>         0.0723
     47 H16        -1.8345  -10.3421    9.1437 H         1 <0>         0.0672
     48 H17        -3.0485  -12.4013    9.6877 H         1 <0>         0.0655
     49 H18        -3.7805  -11.6246    8.2662 H         1 <0>         0.0636
     50 H19        -3.2458  -14.2324    8.2670 H         1 <0>         0.0727
     51 H20        -2.9901  -13.2535    6.7993 H         1 <0>         0.0660
     52 H21        -1.0515  -14.8339    7.7728 H         1 <0>         0.0781
     53 H22        -0.7594  -13.4081    8.7997 H         1 <0>         0.0947
     54 H23         0.4560   -0.0995   -2.9961 H         1 <0>         0.0774
     55 H24        -1.1362   -0.8897   -3.0887 H         1 <0>         0.0732
     56 H25        -1.0059    0.7825   -2.4928 H         1 <0>         0.0794
@<TRIPOS>BOND
     1    1    2 1
     2    1   32 1
     3    1   33 1
     4    1   34 1
     5    2    6 1
     6    2    3 2
     7    3    4 1
     8    3   31 1
     9    4    5 1
    10    5    6 2
    11    5   10 1
    12    6    7 1
    13    7    8 2
    14    7    9 am
    15    9   35 1
    16    9   36 1
    17   10   11 am
    18   10   37 1
    19   11   12 2
    20   11   13 1
    21   13   14 1
    22   13   38 1
    23   13   39 1
    24   14   15 1
    25   15   19 1
    26   15   16 2
    27   16   17 1
    28   17   18 2
    29   18   19 1
    30   18   21 1
    31   19   20 1
    32   20   40 1
    33   20   41 1
    34   20   42 1
    35   21   25 1
    36   21   22 2
    37   22   23 1
    38   22   43 1
    39   23   24 1
    40   24   30 1
    41   24   25 2
    42   25   26 1
    43   26   27 1
    44   26   44 1
    45   26   45 1
    46   27   28 1
    47   27   46 1
    48   27   47 1
    49   28   29 1
    50   28   48 1
    51   28   49 1
    52   29   30 1
    53   29   50 1
    54   29   51 1
    55   30   52 1
    56   30   53 1
    57   31   54 1
    58   31   55 1
    59   31   56 1
@<TRIPOS>MOLECULE
ZINC22786823
   60    64     0     0     0
SMALL
USER_CHARGES

@<TRIPOS>ATOM
      1 C1          0.0613    0.7588   -0.8054 C.ar      1 <0>        -0.0819
      2 C2          1.2266    1.5009   -0.8408 C.ar      1 <0>        -0.1533
      3 C3          2.4518    0.8720   -0.6981 C.ar      1 <0>         0.1007
      4 C4          2.5080   -0.5000   -0.5201 C.ar      1 <0>        -0.1567
      5 C5          1.3414   -1.2400   -0.4850 C.ar      1 <0>        -0.0623
      6 C6          0.1186   -0.6110   -0.6276 C.ar      1 <0>        -0.0901
      7 C7         -1.1528   -1.4191   -0.5892 C.3       1 <0>         0.1711
      8 C8         -1.3742   -2.0713   -1.9296 C.ar      1 <0>        -0.0899
      9 C9         -0.6942   -3.2303   -2.2544 C.ar      1 <0>        -0.0608
     10 C10        -0.8967   -3.8296   -3.4831 C.ar      1 <0>        -0.1569
     11 C11        -1.7811   -3.2688   -4.3890 C.ar      1 <0>         0.1007
     12 C12        -2.4615   -2.1079   -4.0625 C.ar      1 <0>        -0.1536
     13 C13        -2.2613   -1.5133   -2.8311 C.ar      1 <0>        -0.0819
     14 F1         -1.9795   -3.8535   -5.5906 F         1 <0>        -0.1396
     15 N1         -1.0438   -2.4545    0.4472 N.3       1 <0>        -0.5310
     16 C14        -0.7375   -1.8597    1.7556 C.3       1 <0>         0.0559
     17 C15        -0.5540   -2.9737    2.7890 C.3       1 <0>         0.0598
     18 N2         -1.7786   -3.7833    2.8554 N.3       1 <0>        -0.5227
     19 C16        -2.0849   -4.3781    1.5469 C.3       1 <0>         0.0542
     20 C17        -2.2685   -3.2641    0.5136 C.3       1 <0>         0.0599
     21 C18        -1.6696   -4.8187    3.8918 C.3       1 <0>         0.0379
     22 C19        -3.0155   -5.4636    4.1010 C.2       1 <0>         0.5137
     23 O1         -3.9714   -5.0969    3.4508 O.2       1 <0>        -0.4971
     24 N3         -3.1569   -6.4480    5.0107 N.am      1 <0>        -0.6735
     25 C20        -4.4271   -6.9714    5.2846 C.ar      1 <0>         0.1592
     26 C21        -4.5670   -8.3134    5.6197 C.ar      1 <0>        -0.1320
     27 C22        -5.8158   -8.8352    5.8907 C.ar      1 <0>        -0.0826
     28 C23        -6.9352   -8.0190    5.8288 C.ar      1 <0>         0.0740
     29 C24        -6.7980   -6.6706    5.4925 C.ar      1 <0>         0.1115
     30 C25        -5.5419   -6.1485    5.2265 C.ar      1 <0>        -0.1082
     31 N4         -8.0767   -6.1184    5.5125 N.am      1 <0>        -0.6403
     32 H1         -8.2987   -5.1941    5.3194 H         1 <0>         0.4369
     33 C26        -8.9520   -7.0855    5.8455 C.2       1 <0>         0.6848
     34 O2        -10.1549   -6.9354    5.9521 O.2       1 <0>        -0.5539
     35 N5         -8.2948   -8.2439    6.0428 N.am      1 <0>        -0.6413
     36 H2         -8.6982   -9.0904    6.2911 H         1 <0>         0.4363
     37 F2          3.5917    1.5963   -0.7329 F         1 <0>        -0.1395
     38 H3         -0.8947    1.2497   -0.9122 H         1 <0>         0.1310
     39 H4          1.1816    2.5709   -0.9800 H         1 <0>         0.1359
     40 H5          3.4632   -0.9917   -0.4090 H         1 <0>         0.1355
     41 H6          1.3850   -2.3102   -0.3466 H         1 <0>         0.1399
     42 H7         -1.9932   -0.7635   -0.3609 H         1 <0>         0.0637
     43 H8         -0.0042   -3.6674   -1.5478 H         1 <0>         0.1396
     44 H9         -0.3652   -4.7348   -3.7368 H         1 <0>         0.1352
     45 H10        -3.1516   -1.6696   -4.7683 H         1 <0>         0.1358
     46 H11        -2.7950   -0.6101   -2.5747 H         1 <0>         0.1309
     47 H12         0.1800   -1.2756    1.6838 H         1 <0>         0.0866
     48 H13        -1.5586   -1.2115    2.0617 H         1 <0>         0.0465
     49 H14         0.2846   -3.6060    2.4970 H         1 <0>         0.0465
     50 H15        -0.3553   -2.5340    3.7663 H         1 <0>         0.0824
     51 H16        -1.2638   -5.0263    1.2409 H         1 <0>         0.0396
     52 H17        -3.0024   -4.9622    1.6188 H         1 <0>         0.0976
     53 H18        -3.1070   -2.6318    0.8055 H         1 <0>         0.0473
     54 H19        -2.4672   -3.7038   -0.4638 H         1 <0>         0.0836
     55 H20        -0.9498   -5.5741    3.5764 H         1 <0>         0.0696
     56 H21        -1.3351   -4.3651    4.8248 H         1 <0>         0.1102
     57 H22        -2.3791   -6.7941    5.4757 H         1 <0>         0.4139
     58 H23        -3.6957   -8.9498    5.6677 H         1 <0>         0.1383
     59 H24        -5.9211   -9.8782    6.1503 H         1 <0>         0.1380
     60 H25        -5.4321   -5.1050    4.9708 H         1 <0>         0.1447
@<TRIPOS>BOND
     1    1    6 ar
     2    1    2 ar
     3    1   38 1
     4    2    3 ar
     5    2   39 1
     6    3    4 ar
     7    3   37 1
     8    4    5 ar
     9    4   40 1
    10    5    6 ar
    11    5   41 1
    12    6    7 1
    13    7    8 1
    14    7   15 1
    15    7   42 1
    16    8   13 ar
    17    8    9 ar
    18    9   10 ar
    19    9   43 1
    20   10   11 ar
    21   10   44 1
    22   11   12 ar
    23   11   14 1
    24   12   13 ar
    25   12   45 1
    26   13   46 1
    27   15   20 1
    28   15   16 1
    29   16   17 1
    30   16   47 1
    31   16   48 1
    32   17   18 1
    33   17   49 1
    34   17   50 1
    35   18   19 1
    36   18   21 1
    37   19   20 1
    38   19   51 1
    39   19   52 1
    40   20   53 1
    41   20   54 1
    42   21   22 1
    43   21   55 1
    44   21   56 1
    45   22   23 2
    46   22   24 am
    47   24   25 1
    48   24   57 1
    49   25   30 ar
    50   25   26 ar
    51   26   27 ar
    52   26   58 1
    53   27   28 ar
    54   27   59 1
    55   28   35 1
    56   28   29 ar
    57   29   30 ar
    58   29   31 1
    59   30   60 1
    60   31   32 1
    61   31   33 am
    62   33   34 2
    63   33   35 am
    64   35   36 1
@<TRIPOS>MOLECULE
ZINC20567651
   55    59     0     0     0
SMALL
USER_CHARGES

@<TRIPOS>ATOM
      1 C1         -0.7505   -0.1834    1.8134 C.3       1 <0>        -0.1829
      2 C2         -0.1628   -1.5378    1.4118 C.3       1 <0>        -0.0026
      3 N1          1.0865   -1.7677    2.1496 N.4       1 <0>        -0.3776
      4 C3          0.7930   -1.8630    3.5858 C.3       1 <0>        -0.0116
      5 C4          2.1026   -1.7829    4.3829 C.3       1 <0>        -0.0576
      6 C5          3.0724   -2.7657    3.7764 C.2       1 <0>        -0.1875
      7 C6          4.3057   -3.2926    4.3147 C.ar      1 <0>        -0.0895
      8 C7          4.9856   -3.0814    5.5184 C.ar      1 <0>        -0.0695
      9 C8          6.1603   -3.7689    5.6974 C.ar      1 <0>        -0.1449
     10 C9          6.6605   -4.6342    4.7381 C.ar      1 <0>        -0.0972
     11 C10         6.0093   -4.8623    3.5383 C.ar      1 <0>        -0.1267
     12 C11         4.8135   -4.1787    3.3287 C.ar      1 <0>         0.1038
     13 N2          3.9352   -4.1712    2.2826 N.pl3     1 <0>        -0.5539
     14 H1          4.0328   -4.6892    1.4684 H         1 <0>         0.4202
     15 C12         2.8968   -3.3237    2.5565 C.2       1 <0>         0.0832
     16 C13         1.7108   -3.0123    1.6751 C.3       1 <0>         0.2317
     17 H2          0.9896   -3.8276    1.7307 H         1 <0>         0.1499
     18 C14         2.1713   -2.8361    0.2511 C.2       1 <0>        -0.5353
     19 C15         3.0388   -1.7838   -0.0927 C.2       1 <0>         0.5722
     20 N3          3.4393   -1.6431   -1.3719 N.am      1 <0>        -0.6650
     21 H3          4.0376   -0.9183   -1.6119 H         1 <0>         0.4274
     22 C16         3.0160   -2.5006   -2.3185 C.2       1 <0>         0.7057
     23 O1          3.3893   -2.3573   -3.4666 O.2       1 <0>        -0.5366
     24 N4          2.1859   -3.5148   -2.0130 N.am      1 <0>        -0.5098
     25 C17         1.7574   -3.6976   -0.7206 C.2       1 <0>         0.5251
     26 O2          0.9295   -4.7197   -0.4164 O.3       1 <0>        -0.6265
     27 C18         1.7605   -4.3932   -3.0184 C.ar      1 <0>         0.1511
     28 C19         2.4951   -5.5378   -3.2988 C.ar      1 <0>        -0.0632
     29 C20         2.0733   -6.4016   -4.2902 C.ar      1 <0>        -0.1092
     30 C21         0.9208   -6.1274   -5.0039 C.ar      1 <0>        -0.0626
     31 C22         0.1875   -4.9884   -4.7274 C.ar      1 <0>        -0.1761
     32 C23         0.6007   -4.1239   -3.7323 C.ar      1 <0>        -0.0455
     33 C24        -1.0671   -4.6928   -5.5081 C.3       1 <0>         0.5114
     34 F1         -1.2811   -5.7066   -6.4482 F         1 <0>        -0.1747
     35 F2         -2.1570   -4.6307   -4.6332 F         1 <0>        -0.1749
     36 F3         -0.9281   -3.4670   -6.1677 F         1 <0>        -0.1747
     37 O3          3.4256   -1.0040    0.7604 O.2       1 <0>        -0.5704
     38 H4         -0.0378    0.6066    1.5763 H         1 <0>         0.0765
     39 H5         -1.6774   -0.0128    1.2659 H         1 <0>         0.0999
     40 H6         -0.9547   -0.1790    2.8841 H         1 <0>         0.0772
     41 H7         -0.8755   -2.3277    1.6489 H         1 <0>         0.1242
     42 H8          0.0415   -1.5421    0.3411 H         1 <0>         0.1261
     43 H9          0.1390   -1.0416    3.8782 H         1 <0>         0.1304
     44 H10         0.2990   -2.8122    3.7933 H         1 <0>         0.1251
     45 H11         2.5115   -0.7744    4.3206 H         1 <0>         0.0919
     46 H12         1.9168   -2.0429    5.4251 H         1 <0>         0.1096
     47 H13         4.6044   -2.4083    6.2720 H         1 <0>         0.1291
     48 H14         6.7124   -3.6305    6.6153 H         1 <0>         0.1197
     49 H15         7.5903   -5.1479    4.9329 H         1 <0>         0.1228
     50 H16         6.4099   -5.5392    2.7982 H         1 <0>         0.1288
     51 H17         3.3955   -5.7521   -2.7423 H         1 <0>         0.1327
     52 H18         2.6442   -7.2919   -4.5088 H         1 <0>         0.1440
     53 H19         0.5931   -6.8043   -5.7791 H         1 <0>         0.1448
     54 H20         0.0249   -3.2368   -3.5134 H         1 <0>         0.1334
     55 H21         1.7161   -0.9957    1.9896 H         1 <0>         0.4279
@<TRIPOS>BOND
     1    1    2 1
     2    1   38 1
     3    1   39 1
     4    1   40 1
     5    2    3 1
     6    2   41 1
     7    2   42 1
     8    3   16 1
     9    3    4 1
    10    3   55 1
    11    4    5 1
    12    4   43 1
    13    4   44 1
    14    5    6 1
    15    5   45 1
    16    5   46 1
    17    6   15 2
    18    6    7 1
    19    7   12 ar
    20    7    8 ar
    21    8    9 ar
    22    8   47 1
    23    9   10 ar
    24    9   48 1
    25   10   11 ar
    26   10   49 1
    27   11   12 ar
    28   11   50 1
    29   12   13 1
    30   13   14 1
    31   13   15 1
    32   15   16 1
    33   16   17 1
    34   16   18 1
    35   18   25 2
    36   18   19 1
    37   19   37 2
    38   19   20 am
    39   20   21 1
    40   20   22 am
    41   22   23 2
    42   22   24 am
    43   24   25 1
    44   24   27 1
    45   25   26 1
    46   27   32 ar
    47   27   28 ar
    48   28   29 ar
    49   28   51 1
    50   29   30 ar
    51   29   52 1
    52   30   31 ar
    53   30   53 1
    54   31   32 ar
    55   31   33 1
    56   32   54 1
    57   33   34 1
    58   33   35 1
    59   33   36 1
@<TRIPOS>MOLECULE
ZINC09937241
   60    64     0     0     0
SMALL
USER_CHARGES
7-amino-N-(2,4-dimethylphenyl)-5-(2-furyl)-N'-(2-furylmethyl)-3-methyl-9-thia-2-azabicyclo[4.3.0]nona-2,4,7,10-tetraene-4,8-dicarboxamide
@<TRIPOS>ATOM
      1 C1         -0.8765    3.0930  -15.8594 C.3       1 <0>        -0.1143
      2 C2         -1.0580    3.2166  -14.3685 C.ar      1 <0>        -0.0960
      3 C3         -1.2920    2.0867  -13.6059 C.ar      1 <0>        -0.1051
      4 C4         -1.4592    2.1964  -12.2396 C.ar      1 <0>        -0.1192
      5 C5         -1.3918    3.4434  -11.6311 C.ar      1 <0>         0.1375
      6 C6         -1.1616    4.5764  -12.4003 C.ar      1 <0>        -0.1083
      7 C7         -0.9908    4.4592  -13.7660 C.ar      1 <0>        -0.1009
      8 C8         -1.0939    5.9319  -11.7452 C.3       1 <0>        -0.1173
      9 N1         -1.5612    3.5581  -10.2477 N.am      1 <0>        -0.6570
     10 C9         -2.2595    2.6223   -9.5744 C.2       1 <0>         0.5772
     11 O1         -2.8267    1.7333  -10.1807 O.2       1 <0>        -0.4933
     12 C10        -2.3357    2.6761   -8.1058 C.ar      1 <0>        -0.1804
     13 C11        -3.3660    3.3877   -7.4824 C.ar      1 <0>         0.2270
     14 N2         -3.4408    3.4395   -6.1700 N.ar      1 <0>        -0.4414
     15 C12        -2.5627    2.8341   -5.3930 C.ar      1 <0>         0.1483
     16 C13        -1.4782    2.0851   -5.9012 C.ar      1 <0>        -0.1759
     17 C14        -1.3724    2.0114   -7.3242 C.ar      1 <0>         0.1370
     18 C15        -0.2813    1.2584   -7.9577 C.2       1 <0>        -0.0414
     19 C16        -0.4196    0.1346   -8.7196 C.2       1 <0>        -0.1395
     20 C17         0.8734   -0.2441   -9.1198 C.2       1 <0>        -0.2074
     21 C18         1.7323    0.6487   -8.5833 C.2       1 <0>        -0.0190
     22 O2          1.0322    1.5534   -7.8831 O.3       1 <0>        -0.1620
     23 C19        -0.6106    1.4934   -4.8988 C.2       1 <0>         0.3112
     24 C20        -0.9131    1.6970   -3.5685 C.2       1 <0>        -0.3506
     25 S1         -2.3788    2.7086   -3.6305 S.3       1 <0>         0.1427
     26 C21        -0.2217    1.2215   -2.4278 C.2       1 <0>         0.6257
     27 O3          0.7747    0.5341   -2.5623 O.2       1 <0>        -0.5504
     28 N3         -0.6662    1.5297   -1.1933 N.am      1 <0>        -0.7256
     29 C22         0.0491    1.0378   -0.0132 C.3       1 <0>         0.2069
     30 C23        -0.6472    1.5197    1.2333 C.2       1 <0>        -0.0441
     31 C24        -1.6302    0.8730    1.8852 C.2       1 <0>        -0.1794
     32 C25        -1.9875    1.6786    2.9908 C.2       1 <0>        -0.2179
     33 C26        -1.2014    2.7693    2.9485 C.2       1 <0>        -0.0257
     34 O4         -0.3876    2.6649    1.8852 O.3       1 <0>        -0.1709
     35 N4          0.4940    0.7389   -5.2698 N.pl3     1 <0>        -0.8162
     36 C27        -4.3973    4.0994   -8.3196 C.3       1 <0>        -0.1152
     37 H1         -1.8446    3.1829  -16.3520 H         1 <0>         0.0706
     38 H2         -0.2147    3.8844  -16.2116 H         1 <0>         0.0660
     39 H3         -0.4387    2.1225  -16.0929 H         1 <0>         0.0663
     40 H4         -1.3442    1.1175  -14.0796 H         1 <0>         0.1252
     41 H5         -1.6426    1.3138  -11.6448 H         1 <0>         0.1443
     42 H6         -0.8087    5.3396  -14.3643 H         1 <0>         0.1264
     43 H7         -0.0651    6.1436  -11.4537 H         1 <0>         0.0720
     44 H8         -1.4364    6.6922  -12.4471 H         1 <0>         0.0747
     45 H9         -1.7311    5.9403  -10.8609 H         1 <0>         0.0622
     46 H10        -1.1762    4.3111   -9.7727 H         1 <0>         0.4123
     47 H11        -1.3439   -0.3656   -8.9686 H         1 <0>         0.1606
     48 H12         1.1316   -1.0923   -9.7365 H         1 <0>         0.1616
     49 H13         2.8060    0.6367   -8.6992 H         1 <0>         0.2154
     50 H14        -1.4597    2.0771   -1.0862 H         1 <0>         0.4032
     51 H15         0.0618   -0.0521   -0.0241 H         1 <0>         0.1025
     52 H16         1.0724    1.4131   -0.0260 H         1 <0>         0.0884
     53 H17        -2.0638   -0.0786    1.6154 H         1 <0>         0.1518
     54 H18        -2.7462    1.4602    3.7278 H         1 <0>         0.1520
     55 H19        -1.2181    3.5876    3.6530 H         1 <0>         0.2062
     56 H20         1.0641    0.3469   -4.5900 H         1 <0>         0.4235
     57 H21         0.6957    0.6038   -6.2090 H         1 <0>         0.3975
     58 H22        -5.2298    3.4253   -8.5211 H         1 <0>         0.1000
     59 H23        -4.7607    4.9750   -7.7816 H         1 <0>         0.0978
     60 H24        -3.9473    4.4127   -9.2616 H         1 <0>         0.0808
@<TRIPOS>BOND
     1    1    2 1
     2    1   37 1
     3    1   38 1
     4    1   39 1
     5    2    7 ar
     6    2    3 ar
     7    3    4 ar
     8    3   40 1
     9    4    5 ar
    10    4   41 1
    11    5    6 ar
    12    5    9 1
    13    6    7 ar
    14    6    8 1
    15    7   42 1
    16    8   43 1
    17    8   44 1
    18    8   45 1
    19    9   10 am
    20    9   46 1
    21   10   11 2
    22   10   12 1
    23   12   17 ar
    24   12   13 ar
    25   13   14 ar
    26   13   36 1
    27   14   15 ar
    28   15   25 1
    29   15   16 ar
    30   16   17 ar
    31   16   23 1
    32   17   18 1
    33   18   22 1
    34   18   19 2
    35   19   20 1
    36   19   47 1
    37   20   21 2
    38   20   48 1
    39   21   22 1
    40   21   49 1
    41   23   24 2
    42   23   35 1
    43   24   25 1
    44   24   26 1
    45   26   27 2
    46   26   28 am
    47   28   29 1
    48   28   50 1
    49   29   30 1
    50   29   51 1
    51   29   52 1
    52   30   34 1
    53   30   31 2
    54   31   32 1
    55   31   53 1
    56   32   33 2
    57   32   54 1
    58   33   34 1
    59   33   55 1
    60   35   56 1
    61   35   57 1
    62   36   58 1
    63   36   59 1
    64   36   60 1
@<TRIPOS>MOLECULE
ZINC33613433
   66    70     0     0     0
SMALL
USER_CHARGES
(3aR,4S,6R,6aR)-2-(4-ethylphenyl)-4-(2-hydroxy-3-methoxy-phenyl)-6-[(4-hydroxyphenyl)methyl]-1,3-dioxo-3a,4,5,6a-tetrahydropyrrolo[3,4-c]pyrrole-6-carboxylic acid
@<TRIPOS>ATOM
      1 C1          9.6868   -6.2868    3.6004 C.3       1 <0>        -0.1493
      2 C2          9.6883   -6.5440    2.0922 C.3       1 <0>        -0.0876
      3 C3          8.8942   -5.4674    1.3983 C.ar      1 <0>        -0.0868
      4 C4          9.5241   -4.3138    0.9688 C.ar      1 <0>        -0.0965
      5 C5          8.7991   -3.3255    0.3321 C.ar      1 <0>        -0.1371
      6 C6          7.4366   -3.4911    0.1238 C.ar      1 <0>         0.1161
      7 C7          6.8058   -4.6477    0.5616 C.ar      1 <0>        -0.1343
      8 C8          7.5372   -5.6350    1.1926 C.ar      1 <0>        -0.0940
      9 N1          6.6980   -2.4897   -0.5222 N.am      1 <0>        -0.5342
     10 C9          7.2452   -1.3167   -0.9798 C.2       1 <0>         0.5714
     11 O1          8.4210   -1.0496   -1.1058 O.2       1 <0>        -0.4373
     12 C10         6.1130   -0.4705   -1.2793 C.3       1 <0>        -0.2157
     13 H1          6.3420    0.1514   -0.4014 H         1 <0>         0.1782
     14 C11         5.7847    0.7331   -2.0568 C.3       1 <0>         0.1317
     15 H2          6.1130    1.6456   -1.5376 H         1 <0>         0.1607
     16 N2          4.2964    0.6729   -2.2345 N.4       1 <0>        -0.5248
     17 C12         3.8247   -0.6283   -1.6568 C.3       1 <0>         0.0450
     18 C13         5.0529   -1.5236   -1.7834 C.3       1 <0>        -0.0936
     19 H3          4.9743   -2.0472   -2.7476 H         1 <0>         0.1896
     20 C14         5.3555   -2.5764   -0.7648 C.2       1 <0>         0.5486
     21 O2          4.5704   -3.3484   -0.2575 O.2       1 <0>        -0.4158
     22 C15         3.4288   -0.4569   -0.1889 C.3       1 <0>        -0.0795
     23 C16         2.2841    0.5181   -0.0879 C.ar      1 <0>        -0.1378
     24 C17         0.9807    0.0606   -0.1463 C.ar      1 <0>        -0.0162
     25 C18        -0.0704    0.9523   -0.0535 C.ar      1 <0>        -0.1447
     26 C19         0.1829    2.3078    0.0985 C.ar      1 <0>         0.1657
     27 C20         1.4917    2.7643    0.1568 C.ar      1 <0>        -0.2118
     28 C21         2.5392    1.8685    0.0635 C.ar      1 <0>        -0.1069
     29 O3         -0.8493    3.1876    0.1844 O.3       1 <0>        -0.5079
     30 C22         2.6746   -1.1849   -2.4558 C.2       1 <0>         0.4637
     31 O4          2.6003   -2.3734   -2.6604 O.co2     1 <0>        -0.5700
     32 O5          1.7326   -0.3603   -2.9401 O.co2     1 <0>        -0.7040
     33 C23         6.4782    0.7003   -3.3943 C.ar      1 <0>        -0.1498
     34 C24         5.8388    0.1527   -4.4914 C.ar      1 <0>        -0.1241
     35 C25         6.4698    0.1263   -5.7208 C.ar      1 <0>        -0.1015
     36 C26         7.7476    0.6371   -5.8567 C.ar      1 <0>        -0.1519
     37 C27         8.3959    1.1819   -4.7605 C.ar      1 <0>         0.0478
     38 C28         7.7583    1.2137   -3.5236 C.ar      1 <0>         0.1775
     39 O6          8.3904    1.7479   -2.4445 O.3       1 <0>        -0.4994
     40 O7          9.6525    1.6850   -4.8925 O.3       1 <0>        -0.3219
     41 C29        10.2447    1.6187   -6.1913 C.3       1 <0>         0.0274
     42 H4         10.2664   -7.0726    4.1069 H         1 <0>         0.0602
     43 H5          8.6519   -6.2967    3.9730 H         1 <0>         0.0569
     44 H6         10.1410   -5.3062    3.8056 H         1 <0>         0.0559
     45 H7         10.7232   -6.5341    1.7196 H         1 <0>         0.0739
     46 H8          9.2341   -7.5246    1.8870 H         1 <0>         0.0747
     47 H9         10.5841   -4.1855    1.1312 H         1 <0>         0.1295
     48 H10         9.2917   -2.4250   -0.0037 H         1 <0>         0.1485
     49 H11         5.7451   -4.7773    0.4049 H         1 <0>         0.1506
     50 H12         7.0479   -6.5371    1.5291 H         1 <0>         0.1313
     51 H13         3.8298    1.5185   -1.7079 H         1 <0>         0.4448
     52 H14         3.1201   -1.4288    0.2235 H         1 <0>         0.1198
     53 H15         4.2884   -0.0734    0.3804 H         1 <0>         0.0828
     54 H16         0.7840   -0.9947   -0.2650 H         1 <0>         0.1304
     55 H17        -1.0883    0.5944   -0.0988 H         1 <0>         0.1308
     56 H18         1.6914    3.8190    0.2754 H         1 <0>         0.1276
     57 H19         3.5582    2.2234    0.1085 H         1 <0>         0.1164
     58 H20        -0.6475    4.2622    0.3049 H         1 <0>         0.4325
     59 H21         4.8426   -0.2515   -4.3882 H         1 <0>         0.1321
     60 H22         5.9652   -0.2978   -6.5764 H         1 <0>         0.1390
     61 H23         8.2400    0.6115   -6.8176 H         1 <0>         0.1383
     62 H24         9.4069    2.1553   -2.5485 H         1 <0>         0.4516
     63 H25        11.2531    2.0568   -6.1573 H         1 <0>         0.1079
     64 H26         9.6249    2.1801   -6.9059 H         1 <0>         0.0602
     65 H27        10.3119    0.5682   -6.5104 H         1 <0>         0.0601
     66 H28         4.0525    0.7284   -3.3057 H         1 <0>         0.4550
@<TRIPOS>BOND
     1    1    2 1
     2    1   42 1
     3    1   43 1
     4    1   44 1
     5    2    3 1
     6    2   45 1
     7    2   46 1
     8    3    8 ar
     9    3    4 ar
    10    4    5 ar
    11    4   47 1
    12    5    6 ar
    13    5   48 1
    14    6    7 ar
    15    6    9 1
    16    7    8 ar
    17    7   49 1
    18    8   50 1
    19    9   20 am
    20    9   10 am
    21   10   11 2
    22   10   12 1
    23   12   13 1
    24   12   18 1
    25   12   14 1
    26   14   15 1
    27   14   16 1
    28   14   33 1
    29   16   17 1
    30   16   51 1
    31   16   66 1
    32   17   18 1
    33   17   22 1
    34   17   30 1
    35   18   19 1
    36   18   20 1
    37   20   21 2
    38   22   23 1
    39   22   52 1
    40   22   53 1
    41   23   28 ar
    42   23   24 ar
    43   24   25 ar
    44   24   54 1
    45   25   26 ar
    46   25   55 1
    47   26   27 ar
    48   26   29 1
    49   27   28 ar
    50   27   56 1
    51   28   57 1
    52   29   58 1
    53   30   31 2
    54   30   32 1
    55   33   38 ar
    56   33   34 ar
    57   34   35 ar
    58   34   59 1
    59   35   36 ar
    60   35   60 1
    61   36   37 ar
    62   36   61 1
    63   37   38 ar
    64   37   40 1
    65   38   39 1
    66   39   62 1
    67   40   41 1
    68   41   63 1
    69   41   64 1
    70   41   65 1
@<TRIPOS>MOLECULE
ZINC38989409
   52    55     0     0     0
SMALL
USER_CHARGES

@<TRIPOS>ATOM
      1 C1          2.1152    1.4180   -0.7400 C.ar      1 <0>        -0.0975
      2 C2          1.1729    2.0858    0.0209 C.ar      1 <0>        -0.0852
      3 C3          0.2522    1.3740    0.7674 C.ar      1 <0>        -0.1613
      4 C4          0.2709   -0.0072    0.7554 C.ar      1 <0>        -0.0723
      5 C5          1.2156   -0.6806   -0.0075 C.ar      1 <0>         0.1449
      6 C6          2.1391    0.0374   -0.7563 C.ar      1 <0>        -0.1111
      7 N1          1.2374   -2.0796   -0.0215 N.am      1 <0>        -0.6687
      8 C7          0.0867   -2.7727    0.0875 C.2       1 <0>         0.5342
      9 O1         -0.9752   -2.1867    0.1014 O.2       1 <0>        -0.4870
     10 C8          0.1193   -4.2757    0.1922 C.3       1 <0>        -0.1435
     11 S1         -1.5752   -4.9095    0.3253 S.3       1 <0>        -0.1044
     12 C9         -1.3634   -6.7073    0.4415 C.3       1 <0>         0.2288
     13 H1         -2.3348   -7.1921    0.5390 H         1 <0>         0.1511
     14 N2         -0.5094   -7.0437    1.6033 N.3       1 <0>        -0.4722
     15 N3          0.3036   -8.1811    1.1449 N.3       1 <0>        -0.4829
     16 C10         0.5907   -7.8388   -0.2727 C.3       1 <0>         0.2215
     17 H2          1.4186   -7.1324   -0.3344 H         1 <0>         0.0813
     18 N4         -0.6628   -7.2133   -0.7572 N.3       1 <0>        -0.3512
     19 N5         -1.4840   -8.1763   -1.4730 N.3       1 <0>        -0.6888
     20 C11         0.9060   -9.1026   -1.0754 C.3       1 <0>        -0.0316
     21 H3          0.0364   -9.7586   -1.1153 H         1 <0>         0.1783
     22 C12         2.0998   -9.8301   -0.4829 C.2       1 <0>        -0.1316
     23 C13         3.0111   -9.8158   -1.4747 C.2       1 <0>         0.0032
     24 N6          2.5134   -9.1789   -2.5670 N.2       1 <0>        -0.1470
     25 N7          1.3589   -8.7567   -2.4329 N.2       1 <0>        -0.1468
     26 C14         4.3674  -10.4110   -1.3867 C.ar      1 <0>        -0.0294
     27 C15         4.7767  -11.0480   -0.2167 C.ar      1 <0>        -0.0893
     28 C16         6.0390  -11.5999   -0.1398 C.ar      1 <0>        -0.1090
     29 C17         6.8986  -11.5212   -1.2222 C.ar      1 <0>        -0.0248
     30 C18         6.4967  -10.8894   -2.3867 C.ar      1 <0>        -0.1098
     31 C19         5.2341  -10.3398   -2.4757 C.ar      1 <0>        -0.0746
     32 Cl1         8.4859  -12.2166   -1.1188 Cl        1 <0>        -0.0613
     33 C20        -0.7724    2.1058    1.5955 C.3       1 <0>         0.5091
     34 F1         -0.5927    3.4853    1.4475 F         1 <0>        -0.1754
     35 F2         -2.0565    1.7541    1.1659 F         1 <0>        -0.1715
     36 F3         -0.6192    1.7573    2.9417 F         1 <0>        -0.1754
     37 H4          2.8302    1.9768   -1.3255 H         1 <0>         0.1427
     38 H5          1.1565    3.1656    0.0323 H         1 <0>         0.1427
     39 H6         -0.4484   -0.5626    1.3390 H         1 <0>         0.1462
     40 H7          2.8749   -0.4836   -1.3509 H         1 <0>         0.1374
     41 H8          2.0808   -2.5507   -0.1096 H         1 <0>         0.4156
     42 H9          0.5940   -4.6916   -0.6966 H         1 <0>         0.1209
     43 H10         0.6864   -4.5661    1.0766 H         1 <0>         0.1087
     44 H11         0.0747   -6.2624    1.8611 H         1 <0>         0.3196
     45 H12         1.1565   -8.2545    1.6791 H         1 <0>         0.3510
     46 H13        -2.3526   -7.7591   -1.7724 H         1 <0>         0.3633
     47 H14        -0.9824   -8.5681   -2.2559 H         1 <0>         0.3648
     48 H15         2.1959  -10.2588    0.5037 H         1 <0>         0.1788
     49 H16         4.1071  -11.1093    0.6285 H         1 <0>         0.1345
     50 H17         6.3572  -12.0938    0.7664 H         1 <0>         0.1403
     51 H18         7.1709  -10.8303   -3.2283 H         1 <0>         0.1405
     52 H19         4.9197   -9.8514   -3.3862 H         1 <0>         0.1442
@<TRIPOS>BOND
     1    1    6 ar
     2    1    2 ar
     3    1   37 1
     4    2    3 ar
     5    2   38 1
     6    3    4 ar
     7    3   33 1
     8    4    5 ar
     9    4   39 1
    10    5    6 ar
    11    5    7 1
    12    6   40 1
    13    7    8 am
    14    7   41 1
    15    8    9 2
    16    8   10 1
    17   10   11 1
    18   10   42 1
    19   10   43 1
    20   11   12 1
    21   12   13 1
    22   12   18 1
    23   12   14 1
    24   14   15 1
    25   14   44 1
    26   15   16 1
    27   15   45 1
    28   16   17 1
    29   16   18 1
    30   16   20 1
    31   18   19 1
    32   19   46 1
    33   19   47 1
    34   20   21 1
    35   20   25 1
    36   20   22 1
    37   22   23 2
    38   22   48 1
    39   23   24 1
    40   23   26 1
    41   24   25 2
    42   26   31 ar
    43   26   27 ar
    44   27   28 ar
    45   27   49 1
    46   28   29 ar
    47   28   50 1
    48   29   30 ar
    49   29   32 1
    50   30   31 ar
    51   30   51 1
    52   31   52 1
    53   33   34 1
    54   33   35 1
    55   33   36 1
@<TRIPOS>MOLECULE
ZINC39591001
   55    58     0     0     0
SMALL
USER_CHARGES

@<TRIPOS>ATOM
      1 C1         -0.0202    1.4394    0.0271 C.3       1 <0>        -0.1477
      2 C2          0.0022   -0.0903    0.0075 C.3       1 <0>        -0.0896
      3 C3          0.7080   -0.5665   -1.2360 C.ar      1 <0>        -0.0681
      4 C4         -0.0128   -0.7864   -2.3959 C.ar      1 <0>        -0.1195
      5 C5          0.6285   -1.2220   -3.5378 C.ar      1 <0>        -0.0798
      6 C6          2.0048   -1.4403   -3.5206 C.ar      1 <0>        -0.0403
      7 C7          2.7259   -1.2171   -2.3492 C.ar      1 <0>        -0.0977
      8 C8          2.0751   -0.7765   -1.2147 C.ar      1 <0>        -0.1198
      9 C9          2.6997   -1.9091   -4.7449 C.2       1 <0>         0.0308
     10 C10         4.0212   -2.1545   -4.8321 C.2       1 <0>        -0.1767
     11 C11         4.2140   -2.6013   -6.2704 C.3       1 <0>         0.0019
     12 H1          4.5963   -3.6213   -6.3086 H         1 <0>         0.1604
     13 N1          2.8529   -2.5351   -6.8277 N.2       1 <0>        -0.1008
     14 N2          2.0917   -2.1570   -5.9346 N.2       1 <0>        -0.1614
     15 C12         5.1521   -1.6466   -7.0116 C.3       1 <0>         0.2226
     16 H2          6.1254   -1.6069   -6.5225 H         1 <0>         0.0581
     17 N3          4.5546   -0.2889   -7.1056 N.3       1 <0>        -0.4680
     18 N4          5.2044    0.3180   -8.2704 N.3       1 <0>        -0.4803
     19 C13         5.6728   -0.7911   -9.1259 C.3       1 <0>         0.1702
     20 H3          6.7557   -0.7427   -9.2404 H         1 <0>         0.0921
     21 N5          5.2945   -2.0484   -8.4361 N.3       1 <0>        -0.2951
     22 N6          6.3247   -3.0627   -8.5909 N.3       1 <0>        -0.6582
     23 S1          4.8718   -0.7037  -10.7511 S.3       1 <0>        -0.0842
     24 C14         3.1001   -0.7952  -10.3726 C.3       1 <0>        -0.1157
     25 C15         2.3088   -0.7322  -11.6536 C.2       1 <0>         0.5341
     26 O1          2.8836   -0.6350  -12.7172 O.2       1 <0>        -0.5045
     27 N7          0.9626   -0.7837  -11.6173 N.am      1 <0>        -0.6691
     28 C16         0.2243   -0.6280  -12.7961 C.ar      1 <0>         0.1629
     29 C17        -0.9982    0.0303  -12.7694 C.ar      1 <0>        -0.1383
     30 C18        -1.7244    0.1829  -13.9342 C.ar      1 <0>        -0.0712
     31 C19        -1.2350   -0.3194  -15.1269 C.ar      1 <0>        -0.1063
     32 C20        -0.0173   -0.9757  -15.1564 C.ar      1 <0>        -0.0712
     33 C21         0.7155   -1.1265  -13.9955 C.ar      1 <0>        -0.1155
     34 Br1        -2.2325   -0.1090  -16.7196 Br        1 <0>        -0.0508
     35 H4          1.0020    1.8178    0.0221 H         1 <0>         0.0555
     36 H5         -0.5478    1.8064   -0.8532 H         1 <0>         0.0569
     37 H6         -0.5307    1.7838    0.9265 H         1 <0>         0.0599
     38 H7          0.5299   -0.4573    0.8878 H         1 <0>         0.0732
     39 H8         -1.0200   -0.4688    0.0125 H         1 <0>         0.0744
     40 H9         -1.0794   -0.6173   -2.4080 H         1 <0>         0.1270
     41 H10         0.0647   -1.3938   -4.4428 H         1 <0>         0.1349
     42 H11         3.7926   -1.3847   -2.3304 H         1 <0>         0.1214
     43 H12         2.6336   -0.5989   -0.3076 H         1 <0>         0.1255
     44 H13         4.7693   -2.0561   -4.0594 H         1 <0>         0.1686
     45 H14         4.7381    0.2457   -6.2698 H         1 <0>         0.3488
     46 H15         5.9735    0.9075   -7.9891 H         1 <0>         0.3276
     47 H16         6.4214   -3.3354   -9.5575 H         1 <0>         0.3743
     48 H17         7.2053   -2.7440   -8.2153 H         1 <0>         0.3192
     49 H18         2.8862   -1.7327   -9.8592 H         1 <0>         0.1286
     50 H19         2.8217    0.0416   -9.7320 H         1 <0>         0.1244
     51 H20         0.5053   -0.9287  -10.7742 H         1 <0>         0.4175
     52 H21        -1.3808    0.4222  -11.8386 H         1 <0>         0.1365
     53 H22        -2.6753    0.6945  -13.9140 H         1 <0>         0.1374
     54 H23         0.3622   -1.3671  -16.0887 H         1 <0>         0.1365
     55 H24         1.6679   -1.6353  -14.0198 H         1 <0>         0.1485
@<TRIPOS>BOND
     1    1    2 1
     2    1   35 1
     3    1   36 1
     4    1   37 1
     5    2    3 1
     6    2   38 1
     7    2   39 1
     8    3    8 ar
     9    3    4 ar
    10    4    5 ar
    11    4   40 1
    12    5    6 ar
    13    5   41 1
    14    6    7 ar
    15    6    9 1
    16    7    8 ar
    17    7   42 1
    18    8   43 1
    19    9   14 1
    20    9   10 2
    21   10   11 1
    22   10   44 1
    23   11   12 1
    24   11   13 1
    25   11   15 1
    26   13   14 2
    27   15   16 1
    28   15   21 1
    29   15   17 1
    30   17   18 1
    31   17   45 1
    32   18   19 1
    33   18   46 1
    34   19   20 1
    35   19   21 1
    36   19   23 1
    37   21   22 1
    38   22   47 1
    39   22   48 1
    40   23   24 1
    41   24   25 1
    42   24   49 1
    43   24   50 1
    44   25   26 2
    45   25   27 am
    46   27   28 1
    47   27   51 1
    48   28   33 ar
    49   28   29 ar
    50   29   30 ar
    51   29   52 1
    52   30   31 ar
    53   30   53 1
    54   31   32 ar
    55   31   34 1
    56   32   33 ar
    57   32   54 1
    58   33   55 1
@<TRIPOS>MOLECULE
ZINC61389337
   78    83     0     0     0
SMALL
USER_CHARGES

@<TRIPOS>ATOM
      1 C1          0.9515    1.6686    0.0038 C.3       1 <0>        -0.1409
      2 C2          0.5390    0.1910    0.1135 C.3       1 <0>        -0.0297
      3 C3         -0.8979    0.1529    0.5774 C.3       1 <0>        -0.1051
      4 C4         -1.3314   -1.2504    0.9986 C.3       1 <0>        -0.1181
      5 C5         -0.4081   -1.7179    2.1277 C.3       1 <0>        -0.0584
      6 H1         -0.4061   -0.9668    2.9228 H         1 <0>         0.0775
      7 C6          1.0046   -1.8565    1.5653 C.3       1 <0>        -0.0942
      8 H2          1.6782   -2.1791    2.3727 H         1 <0>         0.0709
      9 C7          1.5219   -0.5079    1.0608 C.3       1 <0>         0.1506
     10 C8          2.7507   -0.7851    0.1524 C.3       1 <0>        -0.1545
     11 C9          2.1828   -1.0017   -1.2623 C.3       1 <0>        -0.1294
     12 C10         0.7430   -0.4527   -1.2621 C.3       1 <0>        -0.0254
     13 H3          0.0256   -1.2556   -1.4207 H         1 <0>         0.0940
     14 C11         0.5916    0.5834   -2.3459 C.2       1 <0>        -0.2017
     15 C12        -0.6767    0.8552   -2.8873 C.2       1 <0>         0.0026
     16 C13        -0.7890    1.7971   -3.8673 C.2       1 <0>        -0.2600
     17 C14         0.3672    2.4673   -4.3062 C.2       1 <0>         0.4890
     18 O1          0.2864    3.3128   -5.1811 O.2       1 <0>        -0.4742
     19 O2          1.5605    2.1767   -3.7614 O.3       1 <0>        -0.2594
     20 C15         1.6729    1.2554   -2.7941 C.2       1 <0>         0.1059
     21 O3          1.8729    0.3480    2.1644 O.3       1 <0>        -0.5482
     22 C16         1.0498   -2.9065    0.4603 C.3       1 <0>        -0.1179
     23 C17         0.6253   -4.2730    1.0093 C.3       1 <0>        -0.0876
     24 C18        -0.7364   -4.1233    1.6634 C.2       1 <0>        -0.0904
     25 C19        -1.6885   -4.9275    1.2901 C.2       1 <0>        -0.1752
     26 C20        -3.0750   -4.8759    1.8647 C.3       1 <0>         0.1298
     27 H4         -3.7049   -4.2408    1.2427 H         1 <0>         0.0672
     28 C21        -3.0013   -4.2962    3.2808 C.3       1 <0>        -0.1143
     29 C22        -2.3277   -2.9255    3.2046 C.3       1 <0>        -0.1102
     30 C23        -0.9004   -3.0479    2.6973 C.3       1 <0>        -0.0137
     31 C24        -0.0246   -3.4087    3.9034 C.3       1 <0>        -0.1445
     32 O4         -3.6224   -6.1944    1.9142 O.3       1 <0>        -0.3484
     33 C25        -4.3361   -6.5721    0.7353 C.3       1 <0>         0.2406
     34 H5         -5.0516   -5.7912    0.4776 H         1 <0>         0.0599
     35 C26        -5.0822   -7.8847    0.9886 C.3       1 <0>         0.0997
     36 H6         -5.8162   -7.7394    1.7812 H         1 <0>         0.0770
     37 C27        -5.7954   -8.3140   -0.2973 C.3       1 <0>         0.1193
     38 H7         -6.5410   -7.5662   -0.5677 H         1 <0>         0.0841
     39 C28        -4.7639   -8.4394   -1.4227 C.3       1 <0>         0.0586
     40 H8         -5.2704   -8.6908   -2.3546 H         1 <0>         0.0705
     41 C29        -4.0302   -7.1054   -1.5829 C.3       1 <0>         0.2492
     42 H9         -4.7417   -6.3315   -1.8710 H         1 <0>         0.0570
     43 O5         -3.4153   -6.7493   -0.3431 O.3       1 <0>        -0.4088
     44 O6         -3.0277   -7.2312   -2.5935 O.3       1 <0>        -0.5381
     45 O7         -3.8249   -9.4663   -1.0975 O.3       1 <0>        -0.5130
     46 O8         -6.4358   -9.5746   -0.0907 O.3       1 <0>        -0.5322
     47 O9         -4.1508   -8.8955    1.3797 O.3       1 <0>        -0.5128
     48 H10         1.9100    1.7411   -0.5101 H         1 <0>         0.0511
     49 H11         0.1953    2.2162   -0.5588 H         1 <0>         0.0491
     50 H12         1.0415    2.0958    1.0026 H         1 <0>         0.0700
     51 H13        -1.0123    0.8286    1.4275 H         1 <0>         0.0688
     52 H14        -1.5455    0.4974   -0.2297 H         1 <0>         0.0612
     53 H15        -2.3632   -1.2075    1.3501 H         1 <0>         0.0658
     54 H16        -1.2666   -1.9309    0.1526 H         1 <0>         0.0673
     55 H17         3.4317    0.0719    0.1610 H         1 <0>         0.0732
     56 H18         3.2906   -1.6708    0.4945 H         1 <0>         0.0744
     57 H19         2.7862   -0.4579   -1.9939 H         1 <0>         0.0693
     58 H20         2.1819   -2.0616   -1.5170 H         1 <0>         0.0811
     59 H21        -1.5489    0.3260   -2.5328 H         1 <0>         0.1432
     60 H22        -1.7518    2.0247   -4.3004 H         1 <0>         0.1602
     61 H23         2.6437    1.0445   -2.3704 H         1 <0>         0.1994
     62 H24         2.4925   -0.0513    2.7903 H         1 <0>         0.3752
     63 H25         0.3854   -2.6301   -0.3549 H         1 <0>         0.0735
     64 H26         2.0710   -2.9967    0.0801 H         1 <0>         0.0713
     65 H27         0.5576   -4.9861    0.1848 H         1 <0>         0.0684
     66 H28         1.3573   -4.6247    1.7328 H         1 <0>         0.0716
     67 H29        -1.4732   -5.6648    0.5314 H         1 <0>         0.1188
     68 H30        -4.0093   -4.1853    3.6829 H         1 <0>         0.0718
     69 H31        -2.4252   -4.9619    3.9212 H         1 <0>         0.0768
     70 H32        -2.9069   -2.2848    2.5460 H         1 <0>         0.0702
     71 H33        -2.3100   -2.4849    4.2041 H         1 <0>         0.0737
     72 H34        -0.1052   -2.6262    4.6580 H         1 <0>         0.0573
     73 H35        -0.3598   -4.3562    4.3254 H         1 <0>         0.0566
     74 H36         1.0136   -3.5001    3.5843 H         1 <0>         0.0568
     75 H37        -2.5219   -6.4218   -2.7487 H         1 <0>         0.3921
     76 H38        -3.1411   -9.6006   -1.7680 H         1 <0>         0.3765
     77 H39        -6.9080   -9.9076   -0.8661 H         1 <0>         0.3813
     78 H40        -3.6595   -8.6869    2.1861 H         1 <0>         0.3768
@<TRIPOS>BOND
     1    1    2 1
     2    1   48 1
     3    1   49 1
     4    1   50 1
     5    2    9 1
     6    2   12 1
     7    2    3 1
     8    3    4 1
     9    3   51 1
    10    3   52 1
    11    4    5 1
    12    4   53 1
    13    4   54 1
    14    5    6 1
    15    5   30 1
    16    5    7 1
    17    7    8 1
    18    7    9 1
    19    7   22 1
    20    9   10 1
    21    9   21 1
    22   10   11 1
    23   10   55 1
    24   10   56 1
    25   11   12 1
    26   11   57 1
    27   11   58 1
    28   12   13 1
    29   12   14 1
    30   14   20 2
    31   14   15 1
    32   15   16 2
    33   15   59 1
    34   16   17 1
    35   16   60 1
    36   17   18 2
    37   17   19 1
    38   19   20 1
    39   20   61 1
    40   21   62 1
    41   22   23 1
    42   22   63 1
    43   22   64 1
    44   23   24 1
    45   23   65 1
    46   23   66 1
    47   24   30 1
    48   24   25 2
    49   25   26 1
    50   25   67 1
    51   26   27 1
    52   26   28 1
    53   26   32 1
    54   28   29 1
    55   28   68 1
    56   28   69 1
    57   29   30 1
    58   29   70 1
    59   29   71 1
    60   30   31 1
    61   31   72 1
    62   31   73 1
    63   31   74 1
    64   32   33 1
    65   33   34 1
    66   33   43 1
    67   33   35 1
    68   35   36 1
    69   35   37 1
    70   35   47 1
    71   37   38 1
    72   37   39 1
    73   37   46 1
    74   39   40 1
    75   39   41 1
    76   39   45 1
    77   41   42 1
    78   41   43 1
    79   41   44 1
    80   44   75 1
    81   45   76 1
    82   46   77 1
    83   47   78 1
@<TRIPOS>MOLECULE
ZINC09684677
   58    60     0     0     0
SMALL
USER_CHARGES
1-(5-methyl-1,3,4-thiadiazol-2-yl)-3-[[(1S,5S)-1,3,3-trimethyl-5-[(5-methyl-1,3,4-thiadiazol-2-yl)carbamoylamino]cyclohexyl]methyl]urea
@<TRIPOS>ATOM
      1 C1          0.4707    0.7622    8.7998 C.3       1 <0>        -0.0590
      2 C2          0.2892    0.8857    7.3089 C.2       1 <0>         0.0507
      3 N1          1.0110    0.3885    6.3247 N.2       1 <0>        -0.2459
      4 N2          0.6921    0.6006    5.1219 N.2       1 <0>        -0.2892
      5 C3         -0.3610    1.3308    4.7968 C.2       1 <0>         0.2840
      6 S1         -0.9672    1.7490    6.3726 S.3       1 <0>         0.0144
      7 N3         -0.8528    1.6671    3.5401 N.am      1 <0>        -0.6217
      8 C4         -0.2219    1.2324    2.4312 C.2       1 <0>         0.6979
      9 O1          0.7770    0.5463    2.5296 O.2       1 <0>        -0.5202
     10 N4         -0.6984    1.5583    1.2133 N.am      1 <0>        -0.7328
     11 C5         -0.0127    1.0858    0.0080 C.3       1 <0>         0.1401
     12 C6         -0.7620    1.5990   -1.2471 C.3       1 <0>        -0.0585
     13 C7         -2.1755    1.0454   -1.1852 C.3       1 <0>        -0.1149
     14 C8         -2.9382    1.1592   -2.4913 C.3       1 <0>         0.1711
     15 H1         -3.8540    0.5334   -2.3884 H         1 <0>         0.0853
     16 C9         -2.1558    0.6081   -3.6681 C.3       1 <0>        -0.1205
     17 C10        -0.7418    1.1532   -3.7772 C.3       1 <0>        -0.0506
     18 C11         0.0117    1.1249   -2.4618 C.3       1 <0>        -0.0971
     19 C12         0.0253    0.2437   -4.7694 C.3       1 <0>        -0.1491
     20 C13        -0.7461    2.5595   -4.3827 C.3       1 <0>        -0.1403
     21 N5         -3.4011    2.5229   -2.7352 N.am      1 <0>        -0.7259
     22 C14        -4.4740    2.7398   -3.5215 C.2       1 <0>         0.6988
     23 O2         -5.0565    1.8004   -4.0279 O.2       1 <0>        -0.5188
     24 N6         -4.9011    3.9982   -3.7466 N.am      1 <0>        -0.6222
     25 C15        -6.0082    4.2221   -4.5580 C.2       1 <0>         0.2847
     26 N7         -6.7746    3.3541   -5.1960 N.2       1 <0>        -0.2887
     27 N8         -7.7547    3.7221   -5.9012 N.2       1 <0>        -0.2459
     28 C16        -8.0501    5.0003   -6.0263 C.2       1 <0>         0.0503
     29 S2         -6.7693    5.7205   -5.0060 S.3       1 <0>         0.0133
     30 C17        -9.1567    5.6659   -6.8032 C.3       1 <0>        -0.0590
     31 C18        -0.7721    3.1277   -1.1592 C.3       1 <0>        -0.1510
     32 H2         -0.0678   -0.1143    9.1600 H         1 <0>         0.0961
     33 H3          1.5311    0.6568    9.0292 H         1 <0>         0.1024
     34 H4          0.0803    1.6548    9.2885 H         1 <0>         0.0906
     35 H5         -1.6497    2.2144    3.4616 H         1 <0>         0.4236
     36 H6         -1.4954    2.1056    1.1349 H         1 <0>         0.3972
     37 H7          0.0021   -0.0041    0.0020 H         1 <0>         0.0747
     38 H8          1.0099    1.4631    0.0003 H         1 <0>         0.0747
     39 H9         -2.1311   -0.0117   -0.8858 H         1 <0>         0.0887
     40 H10        -2.7311    1.5751   -0.3978 H         1 <0>         0.0689
     41 H11        -2.1099   -0.4875   -3.5878 H         1 <0>         0.0759
     42 H12        -2.6976    0.8357   -4.5975 H         1 <0>         0.0739
     43 H13         0.9217    1.7392   -2.5628 H         1 <0>         0.0688
     44 H14         0.3602    0.0950   -2.2775 H         1 <0>         0.0689
     45 H15        -0.4699    0.2661   -5.7402 H         1 <0>         0.0554
     46 H16         1.0488    0.6034   -4.8753 H         1 <0>         0.0555
     47 H17         0.0368   -0.7784   -4.3909 H         1 <0>         0.0560
     48 H18        -1.3315    3.2260   -3.7493 H         1 <0>         0.0527
     49 H19         0.2772    2.9289   -4.4508 H         1 <0>         0.0550
     50 H20        -1.1869    2.5249   -5.3789 H         1 <0>         0.0527
     51 H21        -2.9363    3.2723   -2.3312 H         1 <0>         0.3940
     52 H22        -4.4363    4.7476   -3.3426 H         1 <0>         0.4228
     53 H23       -10.0376    5.7646   -6.1689 H         1 <0>         0.0958
     54 H24        -8.8297    6.6540   -7.1272 H         1 <0>         0.0906
     55 H25        -9.4031    5.0607   -7.6756 H         1 <0>         0.1022
     56 H26         0.2532    3.4973   -1.1414 H         1 <0>         0.0675
     57 H27        -1.2913    3.5380   -2.0252 H         1 <0>         0.0606
     58 H28        -1.2852    3.4358   -0.2482 H         1 <0>         0.0556
@<TRIPOS>BOND
     1    1    2 1
     2    1   32 1
     3    1   33 1
     4    1   34 1
     5    2    6 1
     6    2    3 2
     7    3    4 1
     8    4    5 2
     9    5    6 1
    10    5    7 1
    11    7    8 am
    12    7   35 1
    13    8    9 2
    14    8   10 am
    15   10   11 1
    16   10   36 1
    17   11   12 1
    18   11   37 1
    19   11   38 1
    20   12   18 1
    21   12   13 1
    22   12   31 1
    23   13   14 1
    24   13   39 1
    25   13   40 1
    26   14   15 1
    27   14   16 1
    28   14   21 1
    29   16   17 1
    30   16   41 1
    31   16   42 1
    32   17   18 1
    33   17   19 1
    34   17   20 1
    35   18   43 1
    36   18   44 1
    37   19   45 1
    38   19   46 1
    39   19   47 1
    40   20   48 1
    41   20   49 1
    42   20   50 1
    43   21   22 am
    44   21   51 1
    45   22   23 2
    46   22   24 am
    47   24   25 1
    48   24   52 1
    49   25   29 1
    50   25   26 2
    51   26   27 1
    52   27   28 2
    53   28   29 1
    54   28   30 1
    55   30   53 1
    56   30   54 1
    57   30   55 1
    58   31   56 1
    59   31   57 1
    60   31   58 1
@<TRIPOS>MOLECULE
ZINC31693301
   41    43     0     0     0
SMALL
USER_CHARGES
2-[[(2R)-2-[[5-(3-bromoanilino)-1,3,4-thiadiazol-2-yl]sulfanyl]propanoyl]amino]thiophene-3-carboxamide
@<TRIPOS>ATOM
      1 C1          1.3834    6.2449    2.0293 C.3       1 <0>        -0.1522
      2 C2          0.4655    6.6380    0.8700 C.3       1 <0>        -0.1214
      3 H1          1.1066    6.6045   -0.0232 H         1 <0>         0.1322
      4 C3          0.0955    8.0936    0.9935 C.2       1 <0>         0.5275
      5 O1         -0.9392    8.4120    1.5401 O.2       1 <0>        -0.4882
      6 N1          0.9146    9.0416    0.4966 N.am      1 <0>        -0.6184
      7 C4          0.5741   10.3810    0.6103 C.2       1 <0>         0.1237
      8 C5          1.2836   11.4925    0.1709 C.2       1 <0>        -0.2618
      9 C6          0.6877   12.7833    0.4204 C.2       1 <0>        -0.1061
     10 C7         -0.4938   12.8004    1.0634 C.2       1 <0>        -0.2371
     11 S1         -0.8342   11.0746    1.3409 S.3       1 <0>         0.2226
     12 C8          2.5723   11.3601   -0.5158 C.2       1 <0>         0.5928
     13 O2          3.0460   10.2565   -0.7135 O.2       1 <0>        -0.5739
     14 N2          3.2323   12.4605   -0.9282 N.am      1 <0>        -0.8699
     15 S2         -1.0388    5.6254    0.9196 S.3       1 <0>         0.1491
     16 C9         -0.4608    3.9884    0.6185 C.2       1 <0>         0.0279
     17 N3          0.7692    3.5623    0.4028 N.2       1 <0>        -0.2734
     18 N4          1.0015    2.2237    0.1863 N.2       1 <0>        -0.3569
     19 C10        -0.0059    1.3729    0.1954 C.2       1 <0>         0.3392
     20 S3         -1.3845    2.4630    0.5146 S.3       1 <0>         0.0243
     21 N5          0.0021   -0.0041    0.0020 N.pl3     1 <0>        -0.6181
     22 C11         1.2158   -0.6856   -0.1182 C.ar      1 <0>         0.1716
     23 C12         2.3657   -0.1682    0.4658 C.ar      1 <0>        -0.1205
     24 C13         3.5637   -0.8441    0.3458 C.ar      1 <0>        -0.0822
     25 C14         3.6204   -2.0355   -0.3544 C.ar      1 <0>        -0.1095
     26 C15         2.4776   -2.5539   -0.9373 C.ar      1 <0>        -0.0647
     27 C16         1.2744   -1.8846   -0.8167 C.ar      1 <0>        -0.1233
     28 Br1         2.5607   -4.1832   -1.8936 Br        1 <0>        -0.0413
     29 H2          1.6534    5.1824    1.9391 H         1 <0>         0.0911
     30 H3          0.8610    6.4108    2.9830 H         1 <0>         0.0777
     31 H4          2.2956    6.8589    1.9992 H         1 <0>         0.0778
     32 H5          1.8531    8.7528    0.0009 H         1 <0>         0.4653
     33 H6          1.1719   13.6968    0.1082 H         1 <0>         0.1401
     34 H7         -1.0918   13.6549    1.3438 H         1 <0>         0.1897
     35 H8          4.1991   12.3612   -1.4434 H         1 <0>         0.4258
     36 H9          2.8041   13.4579   -0.7496 H         1 <0>         0.4201
     37 H10        -0.9472   -0.5568   -0.0564 H         1 <0>         0.4610
     38 H11         2.3224    0.7621    1.0128 H         1 <0>         0.1468
     39 H12         4.4575   -0.4422    0.7996 H         1 <0>         0.1382
     40 H13         4.5586   -2.5624   -0.4461 H         1 <0>         0.1363
     41 H14         0.3817   -2.2916   -1.2683 H         1 <0>         0.1381
@<TRIPOS>BOND
     1    1    2 1
     2    1   29 1
     3    1   30 1
     4    1   31 1
     5    2    3 1
     6    2    4 1
     7    2   15 1
     8    4    5 2
     9    4    6 am
    10    6    7 1
    11    6   32 1
    12    7   11 1
    13    7    8 2
    14    8    9 1
    15    8   12 1
    16    9   10 2
    17    9   33 1
    18   10   11 1
    19   10   34 1
    20   12   13 2
    21   12   14 am
    22   14   35 1
    23   14   36 1
    24   15   16 1
    25   16   20 1
    26   16   17 2
    27   17   18 1
    28   18   19 2
    29   19   20 1
    30   19   21 1
    31   21   22 1
    32   21   37 1
    33   22   27 ar
    34   22   23 ar
    35   23   24 ar
    36   23   38 1
    37   24   25 ar
    38   24   39 1
    39   25   26 ar
    40   25   40 1
    41   26   27 ar
    42   26   28 1
    43   27   41 1
@<TRIPOS>MOLECULE
ZINC39361846
   57    60     0     0     0
SMALL
USER_CHARGES

@<TRIPOS>ATOM
      1 C1         -0.0066    1.5058    0.0302 C.3       1 <0>        -0.1166
      2 C2          0.0080   -0.0010    0.0129 C.ar      1 <0>        -0.0823
      3 C3          0.0064   -0.6781   -1.1933 C.ar      1 <0>        -0.1017
      4 C4          0.0198   -2.0606   -1.2137 C.ar      1 <0>        -0.1087
      5 C5          0.0347   -2.7702   -0.0289 C.ar      1 <0>        -0.0723
      6 C6          0.0368   -2.0935    1.1842 C.ar      1 <0>         0.1497
      7 C7          0.0287   -0.7041    1.2010 C.ar      1 <0>        -0.1039
      8 N1          0.0515   -2.8083    2.3847 N.pl3     1 <0>        -0.5777
      9 C8          1.2411   -3.2429    3.1362 C.3       1 <0>         0.3809
     10 H1          1.8465   -3.9213    2.5351 H         1 <0>         0.0833
     11 N2          0.6843   -3.9452    4.3053 N.pl3     1 <0>        -0.6634
     12 N3         -0.7080   -3.8811    4.1723 N.2       1 <0>        -0.3029
     13 C9         -1.0521   -3.2424    3.1053 C.2       1 <0>         0.2671
     14 S1         -2.7219   -2.9598    2.6192 S.3       1 <0>         0.0784
     15 C10        -3.6995   -3.7451    3.9300 C.3       1 <0>        -0.1515
     16 C11        -5.1670   -3.5743    3.6330 C.2       1 <0>         0.5354
     17 O1         -5.5189   -2.9813    2.6353 O.2       1 <0>        -0.5001
     18 N4         -6.0886   -4.0807    4.4762 N.am      1 <0>        -0.6665
     19 C12        -7.4487   -3.8396    4.2527 C.ar      1 <0>         0.1385
     20 C13        -8.3105   -3.6663    5.3278 C.ar      1 <0>        -0.1419
     21 C14        -9.6524   -3.4286    5.1040 C.ar      1 <0>        -0.1021
     22 C15       -10.1382   -3.3629    3.8109 C.ar      1 <0>        -0.1308
     23 C16        -9.2827   -3.5355    2.7382 C.ar      1 <0>        -0.1020
     24 C17        -7.9386   -3.7674    2.9553 C.ar      1 <0>        -0.1191
     25 C18         2.0692   -2.0340    3.5765 C.3       1 <0>        -0.1243
     26 C19         3.3395   -2.5079    4.2342 C.2       1 <0>         0.2052
     27 N5          3.3450   -2.8354    5.5628 N.am      1 <0>        -0.6360
     28 C20         4.4738   -3.2600    6.1593 C.2       1 <0>         0.7012
     29 O2          4.4562   -3.5457    7.3410 O.2       1 <0>        -0.5354
     30 N6          5.6220   -3.3733    5.4663 N.am      1 <0>        -0.6587
     31 C21         5.6582   -3.0604    4.1552 C.2       1 <0>         0.5508
     32 O3          6.6967   -3.1626    3.5274 O.2       1 <0>        -0.5083
     33 C22         4.4765   -2.6168    3.5140 C.2       1 <0>        -0.2842
     34 C23         0.0483   -4.2770   -0.0522 C.3       1 <0>        -0.1142
     35 H2          1.0175    1.8792    0.0224 H         1 <0>         0.0724
     36 H3         -0.5343    1.8742   -0.8495 H         1 <0>         0.0699
     37 H4         -0.5134    1.8539    0.9302 H         1 <0>         0.0676
     38 H5         -0.0056   -0.1256   -2.1212 H         1 <0>         0.1278
     39 H6          0.0181   -2.5861   -2.1573 H         1 <0>         0.1298
     40 H7          0.0341   -0.1748    2.1424 H         1 <0>         0.1253
     41 H8          1.1822   -4.3672    5.0230 H         1 <0>         0.4423
     42 H9         -3.4592   -4.8073    3.9757 H         1 <0>         0.1274
     43 H10        -3.4657   -3.2782    4.8868 H         1 <0>         0.1274
     44 H11        -5.8090   -4.6122    5.2379 H         1 <0>         0.4145
     45 H12        -7.9318   -3.7178    6.3380 H         1 <0>         0.1260
     46 H13       -10.3232   -3.2941    5.9397 H         1 <0>         0.1274
     47 H14       -11.1879   -3.1769    3.6385 H         1 <0>         0.1246
     48 H15        -9.6652   -3.4840    1.7296 H         1 <0>         0.1271
     49 H16        -7.2701   -3.8969    2.1170 H         1 <0>         0.1396
     50 H17         2.3156   -1.4260    2.7061 H         1 <0>         0.1170
     51 H18         1.4937   -1.4380    4.2849 H         1 <0>         0.0996
     52 H19         6.4268   -3.6809    5.9118 H         1 <0>         0.4332
     53 H20         4.4851   -2.3655    2.4637 H         1 <0>         0.1727
     54 H21         2.5275   -2.7604    6.0794 H         1 <0>         0.4346
     55 H22         1.0791   -4.6309   -0.0652 H         1 <0>         0.0702
     56 H23        -0.4558   -4.6586    0.8357 H         1 <0>         0.0666
     57 H24        -0.4688   -4.6312   -0.9440 H         1 <0>         0.0708
@<TRIPOS>BOND
     1    1    2 1
     2    1   35 1
     3    1   36 1
     4    1   37 1
     5    2    7 ar
     6    2    3 ar
     7    3    4 ar
     8    3   38 1
     9    4    5 ar
    10    4   39 1
    11    5    6 ar
    12    5   34 1
    13    6    7 ar
    14    6    8 1
    15    7   40 1
    16    8   13 1
    17    8    9 1
    18    9   10 1
    19    9   11 1
    20    9   25 1
    21   11   12 1
    22   11   41 1
    23   12   13 2
    24   13   14 1
    25   14   15 1
    26   15   16 1
    27   15   42 1
    28   15   43 1
    29   16   17 2
    30   16   18 am
    31   18   19 1
    32   18   44 1
    33   19   24 ar
    34   19   20 ar
    35   20   21 ar
    36   20   45 1
    37   21   22 ar
    38   21   46 1
    39   22   23 ar
    40   22   47 1
    41   23   24 ar
    42   23   48 1
    43   24   49 1
    44   25   50 1
    45   25   51 1
    46   25   26 1
    47   26   33 2
    48   26   27 1
    49   27   28 am
    50   27   54 1
    51   28   29 2
    52   28   30 am
    53   30   52 1
    54   30   31 am
    55   31   32 2
    56   31   33 1
    57   33   53 1
    58   34   55 1
    59   34   56 1
    60   34   57 1
@<TRIPOS>MOLECULE
ZINC46567263
   58    62     0     0     0
SMALL
USER_CHARGES

@<TRIPOS>ATOM
      1 C1         -0.0167    1.3781    0.0096 C.ar      1 <0>        -0.1171
      2 C2          1.1709    2.0855    0.0021 C.ar      1 <0>        -0.1156
      3 C3          2.3773    1.4107   -0.0130 C.ar      1 <0>        -0.1118
      4 C4          2.3960    0.0285   -0.0201 C.ar      1 <0>        -0.0707
      5 C5          1.2084   -0.6789   -0.0117 C.ar      1 <0>        -0.1005
      6 C6          0.0021   -0.0041    0.0020 C.ar      1 <0>        -0.1120
      7 C7          3.7112   -0.7071   -0.0376 C.3       1 <0>        -0.0842
      8 C8          4.1714   -0.9633    1.3989 C.3       1 <0>         0.2385
      9 H1          3.3868   -1.4885    1.9436 H         1 <0>         0.1271
     10 C9          5.4216   -1.8045    1.3834 C.2       1 <0>         0.2740
     11 N1          6.5924   -1.4718    1.9910 N.pl3     1 <0>        -0.5961
     12 H2          6.7662   -0.6657    2.5018 H         1 <0>         0.4207
     13 C10         7.4870   -2.4943    1.7464 C.ar      1 <0>         0.0520
     14 C11         8.8106   -2.7253    2.0962 C.ar      1 <0>        -0.1124
     15 C12         9.4350   -3.8816    1.6797 C.ar      1 <0>        -0.0963
     16 C13         8.7499   -4.8143    0.9139 C.ar      1 <0>        -0.1259
     17 C14         7.4473   -4.6038    0.5602 C.ar      1 <0>        -0.0610
     18 C15         6.7937   -3.4392    0.9714 C.ar      1 <0>         0.0481
     19 N2          5.5369   -2.9575    0.7916 N.2       1 <0>        -0.4720
     20 N3          4.4511    0.3151    2.0574 N.am      1 <0>        -0.7220
     21 C16         3.4510    1.0070    2.6383 C.2       1 <0>         0.6065
     22 O1          2.3152    0.5697    2.6158 O.2       1 <0>        -0.4886
     23 C17         3.7303    2.2836    3.2958 C.2       1 <0>         0.0209
     24 N4          4.8940    2.8447    3.3753 N.2       1 <0>        -0.1686
     25 N5          4.8913    4.0609    4.0553 N.pl3     1 <0>        -0.4358
     26 C18         3.5195    4.3576    4.4968 C.3       1 <0>         0.0907
     27 H3          3.1621    5.2816    4.0424 H         1 <0>         0.1175
     28 C19         2.7034    3.1555    3.9823 C.3       1 <0>        -0.0933
     29 C20         3.4545    4.4482    5.9996 C.2       1 <0>         0.5063
     30 O2          4.3386    3.9655    6.6751 O.2       1 <0>        -0.5133
     31 N6          2.4139    5.0657    6.5931 N.am      1 <0>        -0.8482
     32 C21         6.0086    4.8669    4.2809 C.ar      1 <0>         0.2232
     33 C22         5.8767    6.0600    4.9812 C.ar      1 <0>        -0.1627
     34 C23         6.9841    6.8547    5.2025 C.ar      1 <0>        -0.0788
     35 C24         8.2232    6.4646    4.7281 C.ar      1 <0>        -0.1531
     36 C25         8.3581    5.2782    4.0304 C.ar      1 <0>        -0.0825
     37 C26         7.2563    4.4753    3.8107 C.ar      1 <0>        -0.1532
     38 H4         -0.9591    1.9053    0.0259 H         1 <0>         0.1166
     39 H5          1.1563    3.1654    0.0076 H         1 <0>         0.1140
     40 H6          3.3051    1.9634   -0.0196 H         1 <0>         0.1093
     41 H7          1.2231   -1.7588   -0.0176 H         1 <0>         0.1200
     42 H8         -0.9258   -0.5567    0.0082 H         1 <0>         0.1186
     43 H9          3.5884   -1.6586   -0.5549 H         1 <0>         0.1026
     44 H10         4.4573   -0.1052   -0.5563 H         1 <0>         0.0787
     45 H11         9.3485   -2.0024    2.6915 H         1 <0>         0.1244
     46 H12        10.4646   -4.0627    1.9510 H         1 <0>         0.1323
     47 H13         9.2517   -5.7155    0.5939 H         1 <0>         0.1319
     48 H14         6.9237   -5.3362   -0.0364 H         1 <0>         0.1317
     49 H15         5.3562    0.6636    2.0753 H         1 <0>         0.4029
     50 H16         1.9437    3.4826    3.2723 H         1 <0>         0.1207
     51 H17         2.2450    2.6225    4.8154 H         1 <0>         0.1091
     52 H18         1.7067    5.4518    6.0529 H         1 <0>         0.4045
     53 H19         2.3720    5.1240    7.5605 H         1 <0>         0.4088
     54 H20         4.9093    6.3654    5.3516 H         1 <0>         0.1147
     55 H21         6.8823    7.7822    5.7463 H         1 <0>         0.1274
     56 H22         9.0876    7.0882    4.9027 H         1 <0>         0.1249
     57 H23         9.3273    4.9768    3.6612 H         1 <0>         0.1277
     58 H24         7.3633    3.5464    3.2703 H         1 <0>         0.1292
@<TRIPOS>BOND
     1    1    6 ar
     2    1    2 ar
     3    1   38 1
     4    2    3 ar
     5    2   39 1
     6    3    4 ar
     7    3   40 1
     8    4    5 ar
     9    4    7 1
    10    5    6 ar
    11    5   41 1
    12    6   42 1
    13    7    8 1
    14    7   43 1
    15    7   44 1
    16    8    9 1
    17    8   10 1
    18    8   20 1
    19   10   19 2
    20   10   11 1
    21   11   12 1
    22   11   13 1
    23   13   18 ar
    24   13   14 ar
    25   14   15 ar
    26   14   45 1
    27   15   16 ar
    28   15   46 1
    29   16   17 ar
    30   16   47 1
    31   17   18 ar
    32   17   48 1
    33   18   19 1
    34   20   21 am
    35   20   49 1
    36   21   22 2
    37   21   23 1
    38   23   28 1
    39   23   24 2
    40   24   25 1
    41   25   26 1
    42   25   32 1
    43   26   27 1
    44   26   28 1
    45   26   29 1
    46   28   50 1
    47   28   51 1
    48   29   30 2
    49   29   31 am
    50   31   52 1
    51   31   53 1
    52   32   37 ar
    53   32   33 ar
    54   33   34 ar
    55   33   54 1
    56   34   35 ar
    57   34   55 1
    58   35   36 ar
    59   35   56 1
    60   36   37 ar
    61   36   57 1
    62   37   58 1
@<TRIPOS>MOLECULE
ZINC60378632
   65    68     0     0     0
SMALL
USER_CHARGES

@<TRIPOS>ATOM
      1 C1         -0.0187    1.5258    0.0104 C.3       1 <0>        -0.1542
      2 C2          0.0021   -0.0041    0.0020 C.3       1 <0>        -0.1165
      3 C3         -1.4333   -0.5336    0.0129 C.3       1 <0>        -0.1290
      4 C4         -1.4126   -2.0635    0.0045 C.3       1 <0>         0.1348
      5 H1         -0.8102   -2.4233    0.8386 H         1 <0>         0.0999
      6 C5         -2.8413   -2.5937    0.1410 C.3       1 <0>         0.1114
      7 N1         -2.8348   -4.0531    0.0133 N.am      1 <0>        -0.7281
      8 C6         -3.9897   -4.7423    0.1010 C.2       1 <0>         0.5649
      9 O1         -5.0370   -4.1528    0.2861 O.2       1 <0>        -0.5350
     10 C7         -3.9833   -6.2120   -0.0276 C.ar      1 <0>        -0.1500
     11 C8         -2.7785   -6.8896   -0.2346 C.ar      1 <0>        -0.0632
     12 C9         -2.7707   -8.2628   -0.3534 C.ar      1 <0>        -0.1509
     13 C10        -3.9597   -8.9717   -0.2677 C.ar      1 <0>         0.1964
     14 C11        -5.1709   -8.3013   -0.0636 C.ar      1 <0>         0.0906
     15 C12        -5.1817   -6.9265    0.0635 C.ar      1 <0>        -0.0541
     16 N2         -6.3621   -9.0346    0.0088 N.am      1 <0>        -0.6549
     17 C13        -6.3357  -10.3709    0.1739 C.2       1 <0>         0.5073
     18 O2         -7.3763  -10.9939    0.1922 O.2       1 <0>        -0.5198
     19 C14        -5.0267  -11.1006    0.3358 C.3       1 <0>         0.1154
     20 N3         -3.9748  -10.3631   -0.3791 N.pl3     1 <0>        -0.6384
     21 C15        -2.9733  -11.0668   -1.1840 C.3       1 <0>         0.1003
     22 N4         -0.8342   -2.5371   -1.2555 N.am      1 <0>        -0.7256
     23 C16         0.5029   -2.6470   -1.3840 C.2       1 <0>         0.5653
     24 O3          1.2292   -2.3530   -0.4542 O.2       1 <0>        -0.5267
     25 C17         1.0852   -3.1239   -2.6528 C.ar      1 <0>        -0.1509
     26 C18         0.2502   -3.4563   -3.7232 C.ar      1 <0>        -0.0640
     27 C19         0.7929   -3.9005   -4.9098 C.ar      1 <0>        -0.1512
     28 C20         2.1687   -4.0180   -5.0405 C.ar      1 <0>         0.1964
     29 C21         3.0122   -3.6905   -3.9731 C.ar      1 <0>         0.0906
     30 C22         2.4725   -3.2378   -2.7856 C.ar      1 <0>        -0.0543
     31 N5          4.3983   -3.8266   -4.1216 N.am      1 <0>        -0.6551
     32 C23         4.9447   -3.9861   -5.3422 C.2       1 <0>         0.5072
     33 O4          6.1427   -4.1445   -5.4472 O.2       1 <0>        -0.5196
     34 C24         4.0833   -3.9701   -6.5790 C.3       1 <0>         0.1153
     35 N6          2.7405   -4.4600   -6.2347 N.pl3     1 <0>        -0.6383
     36 C25         2.0246   -5.3841   -7.1178 C.3       1 <0>         0.1003
     37 H2          1.0039    1.9031    0.0027 H         1 <0>         0.0529
     38 H3         -0.5459    1.8868   -0.8726 H         1 <0>         0.0503
     39 H4         -0.5289    1.8773    0.9072 H         1 <0>         0.0523
     40 H5          0.5123   -0.3556   -0.8948 H         1 <0>         0.0643
     41 H6          0.5293   -0.3651    0.8851 H         1 <0>         0.0678
     42 H7         -1.9435   -0.1821    0.9097 H         1 <0>         0.0767
     43 H8         -1.9605   -0.1726   -0.8702 H         1 <0>         0.0685
     44 H9         -3.2401   -2.3161    1.1167 H         1 <0>         0.0877
     45 H10        -3.4650   -2.1632   -0.6424 H         1 <0>         0.0781
     46 H11        -1.9994   -4.5233   -0.1343 H         1 <0>         0.4016
     47 H12        -1.8531   -6.3368   -0.3019 H         1 <0>         0.1293
     48 H13        -1.8396   -8.7862   -0.5133 H         1 <0>         0.1371
     49 H14        -6.1128   -6.4047    0.2282 H         1 <0>         0.1439
     50 H15        -7.2139   -8.5757   -0.0602 H         1 <0>         0.4148
     51 H16        -4.7729  -11.1637    1.3940 H         1 <0>         0.0969
     52 H17        -5.1150  -12.1044   -0.0798 H         1 <0>         0.1200
     53 H18        -2.1141  -11.3139   -0.5604 H         1 <0>         0.0552
     54 H19        -3.4073  -11.9832   -1.5841 H         1 <0>         0.0731
     55 H20        -2.6533  -10.4271   -2.0065 H         1 <0>         0.0712
     56 H21        -1.4137   -2.7716   -1.9972 H         1 <0>         0.4007
     57 H22        -0.8211   -3.3652   -3.6204 H         1 <0>         0.1298
     58 H23         0.1475   -4.1572   -5.7368 H         1 <0>         0.1368
     59 H24         3.1192   -2.9768   -1.9609 H         1 <0>         0.1437
     60 H25         4.9699   -3.8056   -3.3382 H         1 <0>         0.4147
     61 H26         4.0130   -2.9518   -6.9613 H         1 <0>         0.0968
     62 H27         4.5236   -4.6164   -7.3383 H         1 <0>         0.1199
     63 H28         1.4289   -4.8159   -7.8322 H         1 <0>         0.0552
     64 H29         2.7431   -6.0032   -7.6551 H         1 <0>         0.0731
     65 H30         1.3694   -6.0207   -6.5233 H         1 <0>         0.0713
@<TRIPOS>BOND
     1    1    2 1
     2    1   37 1
     3    1   38 1
     4    1   39 1
     5    2    3 1
     6    2   40 1
     7    2   41 1
     8    3    4 1
     9    3   42 1
    10    3   43 1
    11    4    5 1
    12    4    6 1
    13    4   22 1
    14    6    7 1
    15    6   44 1
    16    6   45 1
    17    7    8 am
    18    7   46 1
    19    8    9 2
    20    8   10 1
    21   10   15 ar
    22   10   11 ar
    23   11   12 ar
    24   11   47 1
    25   12   13 ar
    26   12   48 1
    27   13   20 1
    28   13   14 ar
    29   14   15 ar
    30   14   16 1
    31   15   49 1
    32   16   17 am
    33   16   50 1
    34   17   18 2
    35   17   19 1
    36   19   20 1
    37   19   51 1
    38   19   52 1
    39   20   21 1
    40   21   53 1
    41   21   54 1
    42   21   55 1
    43   22   23 am
    44   22   56 1
    45   23   24 2
    46   23   25 1
    47   25   30 ar
    48   25   26 ar
    49   26   27 ar
    50   26   57 1
    51   27   28 ar
    52   27   58 1
    53   28   35 1
    54   28   29 ar
    55   29   30 ar
    56   29   31 1
    57   30   59 1
    58   31   32 am
    59   31   60 1
    60   32   33 2
    61   32   34 1
    62   34   35 1
    63   34   61 1
    64   34   62 1
    65   35   36 1
    66   36   63 1
    67   36   64 1
    68   36   65 1
@<TRIPOS>MOLECULE
ZINC03225241
   38    40     0     0     0
SMALL
USER_CHARGES
9-(2-bromophenyl)-7,7-dioxo-3-(trifluoromethyl)-7$l^{6}-thia-8,10-diazabicyclo[4.4.0]deca-2,4,11-triene-4-sulfonamide
@<TRIPOS>ATOM
      1 C1          2.7681    1.2644   -4.0860 C.ar      1 <0>        -0.1103
      2 C2          3.5778    2.2208   -4.6703 C.ar      1 <0>        -0.0921
      3 C3          4.4129    2.9927   -3.8851 C.ar      1 <0>        -0.0841
      4 C4          4.4387    2.8084   -2.5142 C.ar      1 <0>        -0.0286
      5 C5          3.6286    1.8516   -1.9302 C.ar      1 <0>        -0.1400
      6 C6          2.7977    1.0760   -2.7170 C.ar      1 <0>        -0.0845
      7 C7          3.6563    1.6504   -0.4369 C.3       1 <0>         0.4189
      8 H1          4.4711    0.9759   -0.1739 H         1 <0>         0.1490
      9 N1          2.3859    1.0798    0.0042 N.pl3     1 <0>        -0.7345
     10 C8          1.1866    1.7870    0.0003 C.ar      1 <0>         0.3461
     11 C9         -0.0126    1.0758    0.0080 C.ar      1 <0>        -0.1618
     12 C10        -1.2173    1.7467    0.0173 C.ar      1 <0>        -0.0019
     13 C11        -1.2454    3.1294    0.0354 C.ar      1 <0>        -0.7013
     14 C12        -0.0601    3.8422    0.0280 C.ar      1 <0>         0.1225
     15 C13         1.1466    3.1746    0.0050 C.ar      1 <0>        -0.7180
     16 S1          2.6583    4.0900   -0.0272 S.o2      1 <0>         2.6832
     17 O1          2.6481    4.9485    1.1050 O.2       1 <0>        -0.9388
     18 O2          2.8269    4.5693   -1.3543 O.2       1 <0>        -0.9222
     19 N2          3.8494    2.9516    0.2349 N.pl3     1 <0>        -1.1127
     20 S2         -2.7878    3.9810    0.0612 S.o2      1 <0>         2.6870
     21 O3         -3.5643    3.3838    1.0905 O.2       1 <0>        -0.9368
     22 O4         -2.4855    5.3693    0.0431 O.2       1 <0>        -0.9487
     23 N3         -3.5563    3.6453   -1.3668 N.pl3     1 <0>        -1.2403
     24 C14        -2.5087    0.9699    0.0132 C.3       1 <0>         0.4755
     25 F1         -2.2285   -0.4007   -0.0005 F         1 <0>        -0.1674
     26 F2         -3.2454    1.2838    1.1603 F         1 <0>        -0.1289
     27 F3         -3.2511    1.3055   -1.1242 F         1 <0>        -0.1629
     28 Br1         5.5808    3.8648   -1.4393 Br        1 <0>        -0.0382
     29 H2          2.1158    0.6611   -4.6999 H         1 <0>         0.1334
     30 H3          3.5573    2.3648   -5.7405 H         1 <0>         0.1362
     31 H4          5.0456    3.7395   -4.3417 H         1 <0>         0.1384
     32 H5          2.1686    0.3256   -2.2615 H         1 <0>         0.1321
     33 H6          2.3776    0.1614    0.3162 H         1 <0>         0.4234
     34 H7          0.0021   -0.0041    0.0020 H         1 <0>         0.1606
     35 H8         -0.0795    4.9219    0.0398 H         1 <0>         0.1656
     36 H9          4.6212    3.1331    0.7936 H         1 <0>         0.4369
     37 H10        -4.5254    3.6259   -1.4030 H         1 <0>         0.4259
     38 H11        -3.0374    3.4681   -2.1669 H         1 <0>         0.4193
@<TRIPOS>BOND
     1    1    6 ar
     2    1    2 ar
     3    1   29 1
     4    2    3 ar
     5    2   30 1
     6    3    4 ar
     7    3   31 1
     8    4    5 ar
     9    4   28 1
    10    5    6 ar
    11    5    7 1
    12    6   32 1
    13    7    8 1
    14    7   19 1
    15    7    9 1
    16    9   10 1
    17    9   33 1
    18   10   15 ar
    19   10   11 ar
    20   11   12 ar
    21   11   34 1
    22   12   13 ar
    23   12   24 1
    24   13   14 ar
    25   13   20 1
    26   14   15 ar
    27   14   35 1
    28   15   16 1
    29   16   17 2
    30   16   18 2
    31   16   19 1
    32   19   36 1
    33   20   21 2
    34   20   22 2
    35   20   23 1
    36   23   37 1
    37   23   38 1
    38   24   25 1
    39   24   26 1
    40   24   27 1
@<TRIPOS>MOLECULE
ZINC12420516
   60    64     0     0     0
SMALL
USER_CHARGES
(4R)-2-amino-4-(4-methoxyphenyl)-5-oxo-1-[(6-oxo-3-phenyl-1H-pyridazin-4-yl)amino]-4,6,7,8-tetrahydroquinoline-3-carbonitrile
@<TRIPOS>ATOM
      1 C1         -1.4455    2.3151    7.7106 C.3       1 <0>         0.0275
      2 O1         -1.2987    0.9774    7.2299 O.3       1 <0>        -0.3184
      3 C2         -0.5568    0.8041    6.1045 C.ar      1 <0>         0.1246
      4 C3         -0.3731   -0.4680    5.5824 C.ar      1 <0>        -0.1477
      5 C4          0.3820   -0.6415    4.4387 C.ar      1 <0>        -0.0651
      6 C5          0.9547    0.4513    3.8146 C.ar      1 <0>        -0.1058
      7 C6          0.7778    1.7195    4.3361 C.ar      1 <0>        -0.0748
      8 C7          0.0186    1.8990    5.4762 C.ar      1 <0>        -0.1971
      9 C8          1.7783    0.2590    2.5673 C.3       1 <0>         0.0994
     10 H1          1.6113   -0.7466    2.1813 H         1 <0>         0.0972
     11 C9          3.2306    0.4208    2.9074 C.2       1 <0>        -0.2256
     12 C10         3.8992    1.5638    2.6034 C.2       1 <0>         0.4730
     13 N1          3.2495    2.5946    1.9671 N.pl3     1 <0>        -0.3399
     14 C11         2.0864    2.3667    1.2826 C.2       1 <0>         0.2129
     15 C12         1.3468    1.2648    1.5299 C.2       1 <0>        -0.2355
     16 C13         0.1506    1.0233    0.8321 C.2       1 <0>         0.4019
     17 O2         -0.4822    0.0125    1.0655 O.2       1 <0>        -0.4497
     18 C14        -0.3605    1.9926   -0.1984 C.3       1 <0>        -0.1595
     19 C15         0.1293    3.4007    0.1556 C.3       1 <0>        -0.1120
     20 C16         1.6568    3.3742    0.2445 C.3       1 <0>        -0.0974
     21 N2          3.7820    3.8893    2.0202 N.pl3     1 <0>        -0.5162
     22 C17         3.7125    4.6177    3.1928 C.2       1 <0>         0.2369
     23 C18         3.1608    4.0777    4.3440 C.2       1 <0>        -0.2882
     24 C19         3.1293    4.8847    5.4925 C.2       1 <0>         0.5033
     25 O3          2.6526    4.4494    6.5292 O.2       1 <0>        -0.5229
     26 N3          3.6221    6.1341    5.4553 N.am      1 <0>        -0.4562
     27 H2          3.5879    6.6702    6.2630 H         1 <0>         0.4417
     28 N4          4.1360    6.6487    4.3996 N.2       1 <0>        -0.1736
     29 C20         4.2255    5.9906    3.2689 C.2       1 <0>         0.0948
     30 C21         4.8340    6.6295    2.0771 C.ar      1 <0>        -0.0312
     31 C22         5.6370    5.8828    1.2165 C.ar      1 <0>        -0.1253
     32 C23         6.1964    6.4814    0.1059 C.ar      1 <0>        -0.1075
     33 C24         5.9709    7.8225   -0.1476 C.ar      1 <0>        -0.1041
     34 C25         5.1792    8.5696    0.7058 C.ar      1 <0>        -0.1089
     35 C26         4.6099    7.9803    1.8163 C.ar      1 <0>        -0.0803
     36 N5          5.2272    1.6899    2.9331 N.pl3     1 <0>        -0.8479
     37 C27         3.9236   -0.6473    3.5628 C.1       1 <0>         0.2715
     38 N6          4.4734   -1.4946    4.0827 N.1       1 <0>        -0.4379
     39 H3         -0.4634    2.7282    7.9408 H         1 <0>         0.0577
     40 H4         -1.9262    2.9253    6.9460 H         1 <0>         0.0531
     41 H5         -2.0587    2.3121    8.6117 H         1 <0>         0.0988
     42 H6         -0.8202   -1.3219    6.0696 H         1 <0>         0.1296
     43 H7          0.5253   -1.6316    4.0318 H         1 <0>         0.1274
     44 H8          1.2302    2.5710    3.8495 H         1 <0>         0.1157
     45 H9         -0.1233    2.8904    5.8805 H         1 <0>         0.1254
     46 H10        -1.3603    1.9745   -0.2061 H         1 <0>         0.0898
     47 H11         0.0149    1.7125   -1.1826 H         1 <0>         0.1037
     48 H12        -0.1804    4.1019   -0.6192 H         1 <0>         0.0905
     49 H13        -0.2883    3.7032    1.1159 H         1 <0>         0.0770
     50 H14         2.0719    3.0962   -0.7242 H         1 <0>         0.1055
     51 H15         2.0213    4.3624    0.5250 H         1 <0>         0.0898
     52 H16         4.1996    4.2746    1.2340 H         1 <0>         0.4351
     53 H17         2.7686    3.0715    4.3570 H         1 <0>         0.1706
     54 H18         5.8177    4.8369    1.4161 H         1 <0>         0.1222
     55 H19         6.8152    5.9029   -0.5640 H         1 <0>         0.1318
     56 H20         6.4144    8.2878   -1.0155 H         1 <0>         0.1298
     57 H21         5.0059    9.6161    0.5026 H         1 <0>         0.1320
     58 H22         3.9916    8.5645    2.4818 H         1 <0>         0.1329
     59 H23         5.7053    2.5057    2.7168 H         1 <0>         0.4031
     60 H24         5.6865    0.9631    3.3822 H         1 <0>         0.4224
@<TRIPOS>BOND
     1    1    2 1
     2    1   39 1
     3    1   40 1
     4    1   41 1
     5    2    3 1
     6    3    8 ar
     7    3    4 ar
     8    4    5 ar
     9    4   42 1
    10    5    6 ar
    11    5   43 1
    12    6    7 ar
    13    6    9 1
    14    7    8 ar
    15    7   44 1
    16    8   45 1
    17    9   10 1
    18    9   15 1
    19    9   11 1
    20   11   12 2
    21   11   37 1
    22   12   13 1
    23   12   36 1
    24   13   14 1
    25   13   21 1
    26   14   20 1
    27   14   15 2
    28   15   16 1
    29   16   17 2
    30   16   18 1
    31   18   19 1
    32   18   46 1
    33   18   47 1
    34   19   20 1
    35   19   48 1
    36   19   49 1
    37   20   50 1
    38   20   51 1
    39   21   22 1
    40   21   52 1
    41   22   29 1
    42   22   23 2
    43   23   24 1
    44   23   53 1
    45   24   25 2
    46   24   26 am
    47   26   27 1
    48   26   28 1
    49   28   29 2
    50   29   30 1
    51   30   35 ar
    52   30   31 ar
    53   31   32 ar
    54   31   54 1
    55   32   33 ar
    56   32   55 1
    57   33   34 ar
    58   33   56 1
    59   34   35 ar
    60   34   57 1
    61   35   58 1
    62   36   59 1
    63   36   60 1
    64   37   38 3
@<TRIPOS>MOLECULE
ZINC39326494
   63    67     0     0     0
SMALL
USER_CHARGES

@<TRIPOS>ATOM
      1 C1         -0.0252    1.3719    0.0430 C.ar      1 <0>        -0.1792
      2 C2         -0.0065   -0.0108    0.0295 C.ar      1 <0>        -0.0707
      3 C3          1.1978   -0.6865    0.0082 C.ar      1 <0>        -0.1995
      4 C4          2.3912    0.0244    0.0004 C.ar      1 <0>         0.2184
      5 C5          2.3688    1.4133    0.0140 C.ar      1 <0>        -0.1997
      6 C6          1.1610    2.0827    0.0353 C.ar      1 <0>        -0.0710
      7 N1          3.6109   -0.6557   -0.0207 N.pl3     1 <0>        -0.6287
      8 C7          4.8762    0.0812   -0.1469 C.3       1 <0>         0.1057
      9 C8          5.7853   -0.3014    1.0276 C.3       1 <0>         0.1150
     10 N2          5.8265   -1.7668    1.1317 N.am      1 <0>        -0.6202
     11 C9          4.5613   -2.5037    1.2578 C.3       1 <0>         0.0966
     12 C10         3.6524   -2.1207    0.0889 C.3       1 <0>         0.1068
     13 C11         7.0035   -2.4231    1.1113 C.2       1 <0>         0.7141
     14 O1          8.0473   -1.7995    1.1044 O.2       1 <0>        -0.5816
     15 N3          7.0235   -3.7706    1.0987 N.am      1 <0>        -0.7158
     16 C12         8.2990   -4.4852    1.1929 C.3       1 <0>         0.2082
     17 H1          9.0977   -3.8174    1.5157 H         1 <0>         0.1520
     18 C13         8.1833   -5.7146    2.1332 C.3       1 <0>        -0.0065
     19 H2          9.1436   -5.8958    2.6159 H         1 <0>         0.0933
     20 N4          7.7988   -6.8979    1.3399 N.3       1 <0>        -0.4821
     21 N5          8.6551   -7.0117    0.1423 N.3       1 <0>        -0.3832
     22 S1          8.7212   -5.3022   -0.4024 S.3       1 <0>        -0.0660
     23 C14         7.1343   -5.4497    3.1822 C.2       1 <0>         0.5373
     24 O2          6.0207   -5.9137    3.0570 O.2       1 <0>        -0.5046
     25 N6          7.4335   -4.6971    4.2595 N.am      1 <0>        -0.7233
     26 C15         6.4137   -4.4396    5.2792 C.3       1 <0>         0.1286
     27 C16         7.0082   -3.5662    6.3859 C.3       1 <0>        -0.0519
     28 C17         5.9592   -3.3013    7.4349 C.2       1 <0>        -0.1746
     29 C18         5.6212   -4.1669    8.5673 C.ar      1 <0>        -0.1000
     30 C19         6.0953   -5.3983    9.0227 C.ar      1 <0>        -0.0724
     31 C20         5.5558   -5.9598   10.1458 C.ar      1 <0>        -0.1437
     32 C21         4.5395   -5.3156   10.8375 C.ar      1 <0>        -0.0976
     33 C22         4.0566   -4.0995   10.4056 C.ar      1 <0>        -0.1293
     34 C23         4.5913   -3.5095    9.2652 C.ar      1 <0>         0.0953
     35 N7          4.3332   -2.3343    8.5959 N.pl3     1 <0>        -0.5938
     36 C24         5.1612   -2.2246    7.5121 C.2       1 <0>         0.0641
     37 H3         -0.9684    1.8979    0.0552 H         1 <0>         0.1177
     38 H4         -0.9347   -0.5629    0.0360 H         1 <0>         0.1205
     39 H5          1.2117   -1.7663   -0.0020 H         1 <0>         0.1217
     40 H6          3.2948    1.9690    0.0083 H         1 <0>         0.1219
     41 H7          1.1429    3.1625    0.0460 H         1 <0>         0.1204
     42 H8          5.3615   -0.1833   -1.0864 H         1 <0>         0.0690
     43 H9          4.6793    1.1530   -0.1230 H         1 <0>         0.0976
     44 H10         6.7907    0.0813    0.8517 H         1 <0>         0.1055
     45 H11         5.3872    0.1199    1.9507 H         1 <0>         0.0721
     46 H12         4.7582   -3.5755    1.2339 H         1 <0>         0.0885
     47 H13         4.0760   -2.2392    2.1973 H         1 <0>         0.0771
     48 H14         2.6475   -2.5027    0.2685 H         1 <0>         0.0975
     49 H15         4.0486   -2.5455   -0.8334 H         1 <0>         0.0697
     50 H16         6.1934   -4.2674    1.0273 H         1 <0>         0.4113
     51 H17         7.8440   -7.7375    1.8978 H         1 <0>         0.3689
     52 H18         9.5743   -7.3491    0.3858 H         1 <0>         0.3288
     53 H19         8.3241   -4.3260    4.3596 H         1 <0>         0.4014
     54 H20         5.5675   -3.9242    4.8248 H         1 <0>         0.0687
     55 H21         6.0775   -5.3855    5.7040 H         1 <0>         0.0727
     56 H22         7.8544   -4.0816    6.8403 H         1 <0>         0.0772
     57 H23         7.3443   -2.6203    5.9612 H         1 <0>         0.0765
     58 H24         6.8854   -5.9058    8.4892 H         1 <0>         0.1193
     59 H25         5.9229   -6.9125   10.4977 H         1 <0>         0.1227
     60 H26         4.1227   -5.7723   11.7230 H         1 <0>         0.1260
     61 H27         3.2653   -3.6063   10.9505 H         1 <0>         0.1203
     62 H28         5.1696   -1.3959    6.8196 H         1 <0>         0.1693
     63 H29         3.6664   -1.6796    8.8563 H         1 <0>         0.4176
@<TRIPOS>BOND
     1    1    6 ar
     2    1    2 ar
     3    1   37 1
     4    2    3 ar
     5    2   38 1
     6    3    4 ar
     7    3   39 1
     8    4    5 ar
     9    4    7 1
    10    5    6 ar
    11    5   40 1
    12    6   41 1
    13    7   12 1
    14    7    8 1
    15    8    9 1
    16    8   42 1
    17    8   43 1
    18    9   10 1
    19    9   44 1
    20    9   45 1
    21   10   11 1
    22   10   13 am
    23   11   12 1
    24   11   46 1
    25   11   47 1
    26   12   48 1
    27   12   49 1
    28   13   14 2
    29   13   15 am
    30   15   16 1
    31   15   50 1
    32   16   17 1
    33   16   22 1
    34   16   18 1
    35   18   19 1
    36   18   20 1
    37   18   23 1
    38   20   21 1
    39   20   51 1
    40   21   22 1
    41   21   52 1
    42   23   24 2
    43   23   25 am
    44   25   26 1
    45   25   53 1
    46   26   27 1
    47   26   54 1
    48   26   55 1
    49   27   56 1
    50   27   57 1
    51   27   28 1
    52   28   29 1
    53   28   36 2
    54   29   30 ar
    55   29   34 ar
    56   30   31 ar
    57   30   58 1
    58   31   32 ar
    59   31   59 1
    60   32   33 ar
    61   32   60 1
    62   33   34 ar
    63   33   61 1
    64   34   35 1
    65   35   63 1
    66   35   36 1
    67   36   62 1
@<TRIPOS>MOLECULE
ZINC01744422
   58    62     0     0     0
SMALL
USER_CHARGES

@<TRIPOS>ATOM
      1 C1          1.1789   -0.1703    1.6256 C.ar      1 <0>        -0.0813
      2 C2          2.4885    0.2662    1.7092 C.ar      1 <0>        -0.1249
      3 C3          3.5071   -0.5063    1.1822 C.ar      1 <0>        -0.0563
      4 C4          3.2118   -1.7130    0.5697 C.ar      1 <0>        -0.1450
      5 C5          1.8932   -2.1567    0.4746 C.ar      1 <0>         0.1551
      6 C6          0.8791   -1.3717    1.0148 C.ar      1 <0>        -0.1402
      7 N1          1.5631   -3.3531   -0.1550 N.am      1 <0>        -0.6524
      8 C7          2.3344   -4.0558   -0.9780 C.2       1 <0>         0.5283
      9 O1          1.9381   -5.1377   -1.3569 O.2       1 <0>        -0.5051
     10 C8          3.6768   -3.5743   -1.4637 C.3       1 <0>        -0.0837
     11 H1          4.2795   -4.4261   -1.7789 H         1 <0>         0.1610
     12 S1          4.5083   -2.7101   -0.0961 S.3       1 <0>        -0.0425
     13 C9          3.4843   -2.6168   -2.6414 C.3       1 <0>        -0.1322
     14 C10         4.8295   -2.2337   -3.2025 C.2       1 <0>         0.5217
     15 O2          5.8426   -2.6824   -2.7089 O.2       1 <0>        -0.4918
     16 N2          4.9069   -1.3925   -4.2526 N.am      1 <0>        -0.6699
     17 C11         6.1562   -0.9451   -4.7010 C.ar      1 <0>         0.1187
     18 C12         7.2367   -0.9135   -3.8318 C.ar      1 <0>        -0.1093
     19 C13         8.4685   -0.4722   -4.2765 C.ar      1 <0>        -0.1138
     20 C14         8.6284   -0.0606   -5.5872 C.ar      1 <0>        -0.1137
     21 C15         7.5573   -0.0887   -6.4601 C.ar      1 <0>        -0.1094
     22 C16         6.3187   -0.5356   -6.0240 C.ar      1 <0>         0.1189
     23 N3          5.2332   -0.5704   -6.9084 N.am      1 <0>        -0.6699
     24 C17         5.2088    0.2494   -7.9779 C.2       1 <0>         0.5217
     25 O3          6.0753    1.0860   -8.1207 O.2       1 <0>        -0.4914
     26 C18         4.1048    0.1267   -8.9964 C.3       1 <0>        -0.1324
     27 C19         4.3112    1.1661  -10.1000 C.3       1 <0>        -0.0835
     28 H2          4.3842    2.1599   -9.6581 H         1 <0>         0.1606
     29 C20         3.1507    1.1228  -11.0599 C.2       1 <0>         0.5286
     30 O4          2.2631    1.9390  -10.9292 O.2       1 <0>        -0.5050
     31 N4          3.0524    0.2340  -12.0431 N.am      1 <0>        -0.6524
     32 C21         4.0156   -0.6969  -12.4205 C.ar      1 <0>         0.1552
     33 C22         3.6434   -1.7713  -13.2228 C.ar      1 <0>        -0.1402
     34 C23         4.5785   -2.7135  -13.6026 C.ar      1 <0>        -0.0814
     35 C24         5.8939   -2.6017  -13.1905 C.ar      1 <0>        -0.1249
     36 C25         6.2789   -1.5372  -12.3963 C.ar      1 <0>        -0.0566
     37 C26         5.3457   -0.5868  -12.0163 C.ar      1 <0>        -0.1426
     38 S2          5.8373    0.7906  -11.0160 S.3       1 <0>        -0.0449
     39 H3          0.3855    0.4306    2.0449 H         1 <0>         0.1342
     40 H4          2.7152    1.2089    2.1849 H         1 <0>         0.1350
     41 H5          4.5311   -0.1692    1.2477 H         1 <0>         0.1378
     42 H6         -0.1469   -1.7039    0.9563 H         1 <0>         0.1335
     43 H7          0.6797   -3.7108    0.0255 H         1 <0>         0.4152
     44 H8          2.8940   -3.1070   -3.4156 H         1 <0>         0.1156
     45 H9          2.9645   -1.7214   -2.3005 H         1 <0>         0.1066
     46 H10         4.0974   -1.0969   -4.6980 H         1 <0>         0.4059
     47 H11         7.1153   -1.2335   -2.8075 H         1 <0>         0.1517
     48 H12         9.3088   -0.4483   -3.5984 H         1 <0>         0.1279
     49 H13         9.5930    0.2841   -5.9294 H         1 <0>         0.1280
     50 H14         7.6857    0.2334   -7.4829 H         1 <0>         0.1517
     51 H15         4.4990   -1.1845   -6.7512 H         1 <0>         0.4059
     52 H16         4.1210   -0.8728   -9.4311 H         1 <0>         0.1066
     53 H17         3.1432    0.2968   -8.5122 H         1 <0>         0.1156
     54 H18         2.2248    0.2340  -12.5490 H         1 <0>         0.4152
     55 H19         2.6187   -1.8687  -13.5496 H         1 <0>         0.1336
     56 H20         4.2805   -3.5438  -14.2256 H         1 <0>         0.1343
     57 H21         6.6190   -3.3447  -13.4882 H         1 <0>         0.1350
     58 H22         7.3052   -1.4473  -12.0724 H         1 <0>         0.1377
@<TRIPOS>BOND
     1    1    6 ar
     2    1    2 ar
     3    1   39 1
     4    2    3 ar
     5    2   40 1
     6    3    4 ar
     7    3   41 1
     8    4   12 1
     9    4    5 ar
    10    5    6 ar
    11    5    7 1
    12    6   42 1
    13    7    8 am
    14    7   43 1
    15    8    9 2
    16    8   10 1
    17   10   11 1
    18   10   12 1
    19   10   13 1
    20   13   14 1
    21   13   44 1
    22   13   45 1
    23   14   15 2
    24   14   16 am
    25   16   17 1
    26   16   46 1
    27   17   22 ar
    28   17   18 ar
    29   18   19 ar
    30   18   47 1
    31   19   20 ar
    32   19   48 1
    33   20   21 ar
    34   20   49 1
    35   21   22 ar
    36   21   50 1
    37   22   23 1
    38   23   24 am
    39   23   51 1
    40   24   25 2
    41   24   26 1
    42   26   27 1
    43   26   52 1
    44   26   53 1
    45   27   28 1
    46   27   38 1
    47   27   29 1
    48   29   30 2
    49   29   31 am
    50   31   32 1
    51   31   54 1
    52   32   37 ar
    53   32   33 ar
    54   33   34 ar
    55   33   55 1
    56   34   35 ar
    57   34   56 1
    58   35   36 ar
    59   35   57 1
    60   36   37 ar
    61   36   58 1
    62   37   38 1
@<TRIPOS>MOLECULE
ZINC59060655
   45    47     0     0     0
SMALL
USER_CHARGES

@<TRIPOS>ATOM
      1 C1         -0.8014    0.6623   -4.7097 C.ar      1 <0>        -0.0460
      2 C2          0.3050    1.2944   -5.2371 C.ar      1 <0>        -0.0961
      3 C3          1.5199    0.6327   -5.2996 C.ar      1 <0>        -0.0632
      4 C4          1.6320   -0.6663   -4.8332 C.ar      1 <0>        -0.0955
      5 C5          0.5329   -1.3090   -4.3033 C.ar      1 <0>        -0.0786
      6 C6         -0.6947   -0.6473   -4.2379 C.ar      1 <0>        -0.1161
      7 C7         -1.8767   -1.3305   -3.6716 C.2       1 <0>         0.5638
      8 O1         -2.9444   -0.7521   -3.6159 O.2       1 <0>        -0.5239
      9 N1         -1.7706   -2.5949   -3.2169 N.am      1 <0>        -0.5167
     10 N2         -2.8910   -3.2425   -2.6801 N.am      1 <0>        -0.5111
     11 C8         -2.7850   -4.5068   -2.2254 C.2       1 <0>         0.5389
     12 O2         -1.7197   -5.0839   -2.2810 O.2       1 <0>        -0.5218
     13 C9         -3.9901   -5.2034   -1.6480 C.3       1 <0>        -0.1435
     14 S1         -3.5287   -6.8790   -1.1284 S.3       1 <0>         0.0965
     15 C10        -5.0241   -7.5527   -0.4846 C.2       1 <0>         0.3908
     16 N3         -6.1176   -6.8195   -0.4872 N.2       1 <0>        -0.5823
     17 C11        -7.2733   -7.3018   -0.0044 C.2       1 <0>         0.5274
     18 O3         -8.2797   -6.6075   -0.0148 O.2       1 <0>        -0.5184
     19 C12        -7.3230   -8.6113    0.5140 C.2       1 <0>        -0.3834
     20 C13        -6.1850   -9.3649    0.5131 C.2       1 <0>         0.4590
     21 N4         -5.0300   -8.8273    0.0030 N.pl3     1 <0>        -0.4653
     22 C14        -3.8525   -9.5869   -0.0120 C.ar      1 <0>         0.0673
     23 C15        -2.9889   -9.5525    1.0747 C.ar      1 <0>        -0.0748
     24 C16        -1.8290  -10.3020    1.0575 C.ar      1 <0>        -0.0987
     25 C17        -1.5270  -11.0864   -0.0419 C.ar      1 <0>        -0.0102
     26 C18        -2.3861  -11.1224   -1.1262 C.ar      1 <0>        -0.0985
     27 C19        -3.5502  -10.3795   -1.1112 C.ar      1 <0>        -0.0765
     28 Cl1        -0.0676  -12.0265   -0.0609 Cl        1 <0>        -0.0473
     29 N5         -6.1968  -10.6473    1.0119 N.pl3     1 <0>        -0.8435
     30 Br1         3.0318    1.5064   -6.0253 Br        1 <0>        -0.0343
     31 H1         -1.7473    1.1808   -4.6578 H         1 <0>         0.1502
     32 H2          0.2238    2.3075   -5.6024 H         1 <0>         0.1453
     33 H3          2.5820   -1.1774   -4.8849 H         1 <0>         0.1442
     34 H4          0.6214   -2.3223   -3.9402 H         1 <0>         0.1372
     35 H5         -0.9186   -3.0564   -3.2614 H         1 <0>         0.4336
     36 H6         -3.7430   -2.7809   -2.6357 H         1 <0>         0.4392
     37 H7         -4.3554   -4.6437   -0.7869 H         1 <0>         0.1407
     38 H8         -4.7737   -5.2601   -2.4035 H         1 <0>         0.1407
     39 H9         -8.2463   -9.0118    0.9059 H         1 <0>         0.1533
     40 H10        -3.2238   -8.9399    1.9325 H         1 <0>         0.1439
     41 H11        -1.1570  -10.2756    1.9025 H         1 <0>         0.1494
     42 H12        -2.1481  -11.7354   -1.9829 H         1 <0>         0.1495
     43 H13        -4.2228  -10.4116   -1.9556 H         1 <0>         0.1441
     44 H14        -6.9948  -10.9933    1.4414 H         1 <0>         0.4261
     45 H15        -5.4073  -11.2054    0.9340 H         1 <0>         0.4045
@<TRIPOS>BOND
     1    1    6 ar
     2    1    2 ar
     3    1   31 1
     4    2    3 ar
     5    2   32 1
     6    3    4 ar
     7    3   30 1
     8    4    5 ar
     9    4   33 1
    10    5    6 ar
    11    5   34 1
    12    6    7 1
    13    7    8 2
    14    7    9 am
    15    9   10 1
    16    9   35 1
    17   10   11 am
    18   10   36 1
    19   11   12 2
    20   11   13 1
    21   13   14 1
    22   13   37 1
    23   13   38 1
    24   14   15 1
    25   15   21 1
    26   15   16 2
    27   16   17 1
    28   17   18 2
    29   17   19 1
    30   19   20 2
    31   19   39 1
    32   20   21 1
    33   20   29 1
    34   21   22 1
    35   22   27 ar
    36   22   23 ar
    37   23   24 ar
    38   23   40 1
    39   24   25 ar
    40   24   41 1
    41   25   26 ar
    42   25   28 1
    43   26   27 ar
    44   26   42 1
    45   27   43 1
    46   29   44 1
    47   29   45 1
@<TRIPOS>MOLECULE
ZINC10864507
   46    49     0     0     0
SMALL
USER_CHARGES
2-[2-[[4-amino-5-(2-thienyl)-1,2,4-triazol-3-yl]sulfanyl]acetyl]amino-4,5,6,7-tetrahydrobenzothiophene-3-carboxamide
@<TRIPOS>ATOM
      1 C1          4.8343    1.9826   -0.2446 C.2       1 <0>        -0.1627
      2 C2          3.5927    2.5752   -0.2996 C.2       1 <0>        -0.0972
      3 C3          2.4872    1.8151   -0.0120 C.2       1 <0>        -0.1092
      4 S1          3.2161    0.2217    0.3307 S.3       1 <0>         0.1125
      5 C4          4.9265    0.6670    0.0797 C.2       1 <0>        -0.1634
      6 C5          1.0693    2.2092    0.0037 C.2       1 <0>         0.3067
      7 N1          0.5988    3.4370    0.0148 N.2       1 <0>        -0.2526
      8 N2         -0.6860    3.4143    0.0270 N.2       1 <0>        -0.2726
      9 C6         -1.1168    2.1734    0.0184 C.2       1 <0>         0.1086
     10 N3         -0.0164    1.3618    0.0095 N.pl3     1 <0>        -0.3013
     11 N4          0.0021   -0.0041    0.0020 N.3       1 <0>        -0.5804
     12 S2         -2.7998    1.6518    0.0223 S.3       1 <0>         0.0910
     13 C7         -3.6277    3.2613    0.0344 C.3       1 <0>        -0.1424
     14 C8         -5.1209    3.0581    0.0393 C.2       1 <0>         0.5314
     15 O1         -5.5802    1.9356    0.0351 O.2       1 <0>        -0.4837
     16 N5         -5.9460    4.1237    0.0485 N.am      1 <0>        -0.6115
     17 C9         -7.3200    3.9368    0.0530 C.2       1 <0>         0.0658
     18 C10        -8.3209    4.8978    0.0680 C.2       1 <0>        -0.2191
     19 C11        -9.6977    4.4335    0.0662 C.2       1 <0>        -0.0669
     20 C12        -9.8523    3.0917    0.0600 C.2       1 <0>        -0.2030
     21 S3         -8.2037    2.4464    0.0490 S.3       1 <0>         0.2326
     22 C13       -11.1423    2.3311    0.0628 C.3       1 <0>        -0.0370
     23 C14       -12.2719    3.2960    0.4515 C.3       1 <0>        -0.1144
     24 C15       -12.1356    4.5753   -0.3791 C.3       1 <0>        -0.1200
     25 C16       -10.9055    5.3625    0.0762 C.3       1 <0>        -0.0615
     26 C17        -8.0010    6.3286    0.0809 C.2       1 <0>         0.5828
     27 O2         -7.8741    6.9334   -0.9676 O.2       1 <0>        -0.5312
     28 N6         -7.8475    6.9742    1.2540 N.am      1 <0>        -0.8472
     29 H1          5.7236    2.5557   -0.4616 H         1 <0>         0.1432
     30 H2          3.4913    3.6182   -0.5607 H         1 <0>         0.1453
     31 H3          5.8081    0.0488    0.1636 H         1 <0>         0.1927
     32 H4          0.0160   -0.3707    0.9420 H         1 <0>         0.3707
     33 H5         -0.7793   -0.3734   -0.5187 H         1 <0>         0.3816
     34 H6         -3.3334    3.8146    0.9263 H         1 <0>         0.1390
     35 H7         -3.3405    3.8243   -0.8536 H         1 <0>         0.1398
     36 H8         -5.5787    5.0215    0.0519 H         1 <0>         0.4239
     37 H9        -11.3316    1.9255   -0.9311 H         1 <0>         0.0839
     38 H10       -11.0877    1.5181    0.7867 H         1 <0>         0.0822
     39 H11       -13.2363    2.8300    0.2492 H         1 <0>         0.0747
     40 H12       -12.1979    3.5368    1.5120 H         1 <0>         0.0685
     41 H13       -12.0290    4.3139   -1.4319 H         1 <0>         0.0680
     42 H14       -13.0263    5.1895   -0.2469 H         1 <0>         0.0711
     43 H15       -10.7317    6.1952   -0.6053 H         1 <0>         0.0759
     44 H16       -11.0679    5.7433    1.0845 H         1 <0>         0.0774
     45 H17        -7.9486    6.4922    2.0897 H         1 <0>         0.4037
     46 H18        -7.6358    7.9208    1.2626 H         1 <0>         0.4044
@<TRIPOS>BOND
     1    1    5 2
     2    1    2 1
     3    1   29 1
     4    2    3 2
     5    2   30 1
     6    3    4 1
     7    3    6 1
     8    4    5 1
     9    5   31 1
    10    6   10 1
    11    6    7 2
    12    7    8 1
    13    8    9 2
    14    9   10 1
    15    9   12 1
    16   10   11 1
    17   11   32 1
    18   11   33 1
    19   12   13 1
    20   13   14 1
    21   13   34 1
    22   13   35 1
    23   14   15 2
    24   14   16 am
    25   16   17 1
    26   16   36 1
    27   17   21 1
    28   17   18 2
    29   18   19 1
    30   18   26 1
    31   19   25 1
    32   19   20 2
    33   20   21 1
    34   20   22 1
    35   22   23 1
    36   22   37 1
    37   22   38 1
    38   23   24 1
    39   23   39 1
    40   23   40 1
    41   24   25 1
    42   24   41 1
    43   24   42 1
    44   25   43 1
    45   25   44 1
    46   26   27 2
    47   26   28 am
    48   28   45 1
    49   28   46 1
@<TRIPOS>MOLECULE
ZINC35458004
   58    61     0     0     0
SMALL
USER_CHARGES

@<TRIPOS>ATOM
      1 C1          0.6121   -0.3905    1.3536 C.ar      1 <0>        -0.0325
      2 C2          1.7265    0.3488    1.6796 C.ar      1 <0>        -0.1497
      3 C3          2.0171    1.5166    0.9834 C.ar      1 <0>         0.1064
      4 C4          1.1845    1.9443   -0.0446 C.ar      1 <0>        -0.1582
      5 C5          0.0673    1.2126   -0.3783 C.ar      1 <0>        -0.0850
      6 C6         -0.2294    0.0355    0.3190 C.ar      1 <0>        -0.0759
      7 C7         -1.4203   -0.7501   -0.0336 C.2       1 <0>        -0.0129
      8 C8         -1.3403   -2.0959   -0.1204 C.2       1 <0>        -0.1804
      9 C9         -2.4929   -3.0714   -0.2975 C.3       1 <0>        -0.1604
     10 H1         -3.1686   -2.7366   -1.0845 H         1 <0>         0.0971
     11 C10        -1.7587   -4.3670   -0.7146 C.3       1 <0>         0.1482
     12 H2         -1.6998   -4.4433   -1.8003 H         1 <0>         0.0940
     13 O1         -0.4487   -4.2008   -0.1457 O.3       1 <0>        -0.3250
     14 C11        -0.1616   -2.8873   -0.0712 C.2       1 <0>         0.5230
     15 O2          0.9636   -2.4359    0.0291 O.2       1 <0>        -0.4681
     16 C12        -2.4445   -5.5772   -0.1347 C.ar      1 <0>        -0.1088
     17 C13        -2.0917   -6.0346    1.1215 C.ar      1 <0>        -0.0262
     18 C14        -2.7185   -7.1440    1.6552 C.ar      1 <0>        -0.1461
     19 C15        -3.7032   -7.7989    0.9297 C.ar      1 <0>         0.1239
     20 C16        -4.0557   -7.3376   -0.3303 C.ar      1 <0>        -0.1864
     21 C17        -3.4295   -6.2247   -0.8573 C.ar      1 <0>        -0.0575
     22 O3         -4.3210   -8.8907    1.4523 O.3       1 <0>        -0.2962
     23 C18        -5.3250   -9.5144    0.6493 C.3       1 <0>         0.2252
     24 H3         -6.0271   -8.7600    0.2942 H         1 <0>         0.0683
     25 C19        -6.0740  -10.5553    1.4856 C.3       1 <0>         0.0665
     26 H4         -6.5805  -10.0606    2.3144 H         1 <0>         0.0729
     27 C20        -7.1072  -11.2612    0.6022 C.3       1 <0>         0.0795
     28 H5         -7.8437  -10.5375    0.2530 H         1 <0>         0.0802
     29 C21        -6.3929  -11.8862   -0.6001 C.3       1 <0>         0.0924
     30 H6         -7.1275  -12.3434   -1.2629 H         1 <0>         0.0720
     31 C22        -5.6316  -10.7939   -1.3558 C.3       1 <0>         0.1093
     32 H7         -6.3377  -10.0563   -1.7373 H         1 <0>         0.0797
     33 O4         -4.7097  -10.1568   -0.4691 O.3       1 <0>        -0.3593
     34 C23        -4.8668  -11.4199   -2.5238 C.3       1 <0>         0.0913
     35 O5         -4.2512  -10.3883   -3.2976 O.3       1 <0>        -0.5642
     36 O6         -5.4748  -12.8823   -0.1452 O.3       1 <0>        -0.5277
     37 O7         -7.7618  -12.2837    1.3560 O.3       1 <0>        -0.5491
     38 O8         -5.1462  -11.5143    1.9970 O.3       1 <0>        -0.5251
     39 C24        -3.2360   -3.2669    0.9989 C.2       1 <0>         0.5195
     40 O9         -4.4447   -3.4272    0.9905 O.co2     1 <0>        -0.6813
     41 O10        -2.6287   -3.2648    2.0560 O.co2     1 <0>        -0.6755
     42 O11         3.1172    2.2419    1.3087 O.3       1 <0>        -0.5022
     43 H8          0.3896   -1.2999    1.8921 H         1 <0>         0.1289
     44 H9          2.3761    0.0212    2.4778 H         1 <0>         0.1269
     45 H10         1.4144    2.8523   -0.5821 H         1 <0>         0.1256
     46 H11        -0.5792    1.5461   -1.1765 H         1 <0>         0.1273
     47 H12        -2.3594   -0.2516   -0.2232 H         1 <0>         0.1383
     48 H13        -1.3251   -5.5244    1.6858 H         1 <0>         0.1360
     49 H14        -2.4420   -7.5013    2.6361 H         1 <0>         0.1269
     50 H15        -4.8219   -7.8457   -0.8970 H         1 <0>         0.1237
     51 H16        -3.7067   -5.8626   -1.8363 H         1 <0>         0.1220
     52 H17        -4.0999  -12.0913   -2.1377 H         1 <0>         0.0681
     53 H18        -5.5586  -11.9814   -3.1518 H         1 <0>         0.0606
     54 H19        -3.7479  -10.7132   -4.0567 H         1 <0>         0.3814
     55 H20        -5.8895  -13.6043    0.3466 H         1 <0>         0.3822
     56 H21        -8.2299  -11.9579    2.1369 H         1 <0>         0.3861
     57 H22        -4.4598  -11.1347    2.5626 H         1 <0>         0.3832
     58 H23         3.9138    1.9875    0.8231 H         1 <0>         0.3872
@<TRIPOS>BOND
     1    1    6 ar
     2    1    2 ar
     3    1   43 1
     4    2    3 ar
     5    2   44 1
     6    3    4 ar
     7    3   42 1
     8    4    5 ar
     9    4   45 1
    10    5    6 ar
    11    5   46 1
    12    6    7 1
    13    7    8 2
    14    7   47 1
    15    8   14 1
    16    8    9 1
    17    9   10 1
    18    9   11 1
    19    9   39 1
    20   11   12 1
    21   11   13 1
    22   11   16 1
    23   13   14 1
    24   14   15 2
    25   16   21 ar
    26   16   17 ar
    27   17   18 ar
    28   17   48 1
    29   18   19 ar
    30   18   49 1
    31   19   20 ar
    32   19   22 1
    33   20   21 ar
    34   20   50 1
    35   21   51 1
    36   22   23 1
    37   23   24 1
    38   23   33 1
    39   23   25 1
    40   25   26 1
    41   25   27 1
    42   25   38 1
    43   27   28 1
    44   27   29 1
    45   27   37 1
    46   29   30 1
    47   29   31 1
    48   29   36 1
    49   31   32 1
    50   31   33 1
    51   31   34 1
    52   34   35 1
    53   34   52 1
    54   34   53 1
    55   35   54 1
    56   36   55 1
    57   37   56 1
    58   38   57 1
    59   39   40 2
    60   39   41 1
    61   42   58 1
@<TRIPOS>MOLECULE
ZINC39007568
   55    59     0     0     0
SMALL
USER_CHARGES

@<TRIPOS>ATOM
      1 C1         -0.0011    1.3612   -0.0498 C.ar      1 <0>        -0.1084
      2 C2          1.1824    2.0773   -0.0480 C.ar      1 <0>        -0.1204
      3 C3          2.3929    1.4145   -0.0581 C.ar      1 <0>        -0.0875
      4 C4          2.4215    0.0213   -0.0701 C.ar      1 <0>        -0.0323
      5 C5          1.2261   -0.6950   -0.0718 C.ar      1 <0>        -0.1011
      6 C6          0.0213   -0.0219   -0.0617 C.ar      1 <0>        -0.1199
      7 C7          3.7198   -0.6968   -0.0815 C.2       1 <0>         0.0082
      8 C8          3.8568   -2.0367   -0.0988 C.2       1 <0>        -0.1327
      9 C9          5.3603   -2.2485   -0.1041 C.3       1 <0>        -0.0193
     10 H1          5.6722   -2.7714   -1.0082 H         1 <0>         0.1670
     11 N1          5.8927   -0.8760   -0.0875 N.2       1 <0>        -0.1410
     12 N2          4.9384   -0.0954   -0.0818 N.2       1 <0>        -0.1511
     13 C10         5.8018   -3.0182    1.1424 C.3       1 <0>         0.2307
     14 H2          5.3102   -3.9899    1.1885 H         1 <0>         0.1007
     15 N3          5.5270   -2.2303    2.3724 N.3       1 <0>        -0.4875
     16 N4          6.4742   -2.7518    3.3614 N.3       1 <0>        -0.4999
     17 C11         7.5955   -3.3484    2.6076 C.3       1 <0>         0.1559
     18 H3          7.6809   -4.4094    2.8423 H         1 <0>         0.0993
     19 N5          7.2804   -3.1742    1.1688 N.3       1 <0>        -0.3325
     20 N6          7.6958   -4.3337    0.3961 N.3       1 <0>        -0.6556
     21 S1          9.1432   -2.4952    3.0166 S.3       1 <0>        -0.0844
     22 C12         8.8231   -0.7667    2.5687 C.3       1 <0>        -0.1243
     23 C13        10.0463    0.0631    2.8623 C.2       1 <0>         0.5340
     24 O1         11.0366   -0.4600    3.3280 O.2       1 <0>        -0.5002
     25 N7         10.0399    1.3865    2.6075 N.am      1 <0>        -0.6633
     26 C14        11.1370    2.1718    2.9663 C.ar      1 <0>         0.1493
     27 C15        12.4134    1.6566    2.8967 C.ar      1 <0>        -0.1193
     28 C16        13.5138    2.4309    3.2520 C.ar      1 <0>        -0.0952
     29 C17        13.3616    3.7156    3.6768 C.ar      1 <0>        -0.1205
     30 C18        12.0771    4.2789    3.7616 C.ar      1 <0>        -0.0372
     31 C19        10.9496    3.5021    3.3979 C.ar      1 <0>        -0.0615
     32 C20         9.6674    4.0677    3.4790 C.ar      1 <0>        -0.1097
     33 C21         9.5239    5.3545    3.9003 C.ar      1 <0>        -0.1129
     34 C22        10.6327    6.1213    4.2529 C.ar      1 <0>        -0.1153
     35 C23        11.8897    5.6023    4.1972 C.ar      1 <0>        -0.1034
     36 H4         -0.9462    1.8838   -0.0374 H         1 <0>         0.1256
     37 H5          1.1591    3.1570   -0.0391 H         1 <0>         0.1280
     38 H6          3.3164    1.9746   -0.0571 H         1 <0>         0.1337
     39 H7          1.2425   -1.7748   -0.0815 H         1 <0>         0.1228
     40 H8         -0.9057   -0.5760   -0.0626 H         1 <0>         0.1272
     41 H9          3.0787   -2.7856   -0.1067 H         1 <0>         0.1748
     42 H10         5.6773   -1.2455    2.2121 H         1 <0>         0.3640
     43 H11         6.0342   -3.4369    3.9573 H         1 <0>         0.3679
     44 H12         8.6991   -4.4396    0.4140 H         1 <0>         0.3721
     45 H13         7.2380   -5.1705    0.7251 H         1 <0>         0.3223
     46 H14         8.5882   -0.7043    1.5061 H         1 <0>         0.1260
     47 H15         7.9810   -0.3908    3.1496 H         1 <0>         0.1152
     48 H16         9.2730    1.7934    2.1747 H         1 <0>         0.4134
     49 H17        12.5613    0.6401    2.5629 H         1 <0>         0.1414
     50 H18        14.5047    2.0057    3.1902 H         1 <0>         0.1279
     51 H19        14.2275    4.3011    3.9486 H         1 <0>         0.1288
     52 H20         8.7992    3.4853    3.2083 H         1 <0>         0.1217
     53 H21         8.5363    5.7872    3.9618 H         1 <0>         0.1244
     54 H22        10.4919    7.1398    4.5833 H         1 <0>         0.1245
     55 H23        12.7398    6.2081    4.4743 H         1 <0>         0.1296
@<TRIPOS>BOND
     1    1    6 ar
     2    1    2 ar
     3    1   36 1
     4    2    3 ar
     5    2   37 1
     6    3    4 ar
     7    3   38 1
     8    4    5 ar
     9    4    7 1
    10    5    6 ar
    11    5   39 1
    12    6   40 1
    13    7   12 1
    14    7    8 2
    15    8    9 1
    16    8   41 1
    17    9   10 1
    18    9   11 1
    19    9   13 1
    20   11   12 2
    21   13   14 1
    22   13   19 1
    23   13   15 1
    24   15   16 1
    25   15   42 1
    26   16   17 1
    27   16   43 1
    28   17   18 1
    29   17   19 1
    30   17   21 1
    31   19   20 1
    32   20   44 1
    33   20   45 1
    34   21   22 1
    35   22   23 1
    36   22   46 1
    37   22   47 1
    38   23   24 2
    39   23   25 am
    40   25   26 1
    41   25   48 1
    42   26   31 ar
    43   26   27 ar
    44   27   28 ar
    45   27   49 1
    46   28   29 ar
    47   28   50 1
    48   29   30 ar
    49   29   51 1
    50   30   35 ar
    51   30   31 ar
    52   31   32 ar
    53   32   33 ar
    54   32   52 1
    55   33   34 ar
    56   33   53 1
    57   34   35 ar
    58   34   54 1
    59   35   55 1
@<TRIPOS>MOLECULE
ZINC39709751
   55    58     0     0     0
SMALL
USER_CHARGES

@<TRIPOS>ATOM
      1 C1         -0.0167    1.3837    0.0096 C.ar      1 <0>        -0.1447
      2 C2          0.0021   -0.0041    0.0020 C.ar      1 <0>        -0.0980
      3 C3         -1.1734   -0.7229    0.0089 C.ar      1 <0>        -0.1302
      4 C4         -2.3924   -0.0535    0.0242 C.ar      1 <0>         0.0946
      5 N1         -3.7041   -0.4723    0.0336 N.pl3     1 <0>        -0.5949
      6 C5         -4.5386    0.6120    0.0473 C.2       1 <0>         0.0612
      7 C6         -3.8178    1.7444    0.0473 C.2       1 <0>        -0.1731
      8 C7         -2.4061    1.3535    0.0323 C.ar      1 <0>        -0.1004
      9 C8         -1.2031    2.0617    0.0303 C.ar      1 <0>        -0.0714
     10 C9         -4.3583    3.1511    0.0598 C.3       1 <0>        -0.0525
     11 C10        -4.4370    3.6799   -1.3738 C.3       1 <0>         0.1260
     12 N2         -4.9624    5.0474   -1.3617 N.am      1 <0>        -0.7351
     13 C11        -5.1198    5.7191   -2.5195 C.2       1 <0>         0.5215
     14 O1         -4.8264    5.1915   -3.5714 O.2       1 <0>        -0.5356
     15 C12        -5.6603    7.1258   -2.5070 C.3       1 <0>        -0.1322
     16 C13        -5.7390    7.6546   -3.9406 C.3       1 <0>         0.1096
     17 H1         -4.7565    7.5497   -4.4008 H         1 <0>         0.0858
     18 C14        -6.0999    9.1595   -3.8902 C.3       1 <0>        -0.0653
     19 S1         -7.2214    9.2706   -5.3552 S.3       1 <0>        -0.3512
     20 C15        -7.8540    7.5375   -5.2657 C.3       1 <0>         0.4234
     21 H2         -8.7193    7.4696   -4.6063 H         1 <0>         0.1311
     22 N3         -6.6880    6.8361   -4.6842 N.3       1 <0>        -0.6892
     23 N4         -8.1709    7.0228   -6.6002 N.am      1 <0>        -0.7285
     24 C16        -9.2991    7.4161   -7.2238 C.2       1 <0>         0.7125
     25 O2        -10.0540    8.1980   -6.6788 O.2       1 <0>        -0.5683
     26 N5         -9.5906    6.9426   -8.4515 N.am      1 <0>        -0.7389
     27 C17       -10.8170    7.3701   -9.1294 C.3       1 <0>         0.2271
     28 C18       -10.9057    6.7009  -10.4767 C.2       1 <0>        -0.1768
     29 C19       -11.4815    5.5190  -10.8066 C.2       1 <0>        -0.1290
     30 C20       -11.4421    5.0983  -12.1227 C.2       1 <0>        -0.1644
     31 C21       -10.8289    5.8802  -13.0446 C.2       1 <0>        -0.1621
     32 S2        -10.2863    7.2628  -12.0540 S.3       1 <0>         0.0543
     33 H3          0.9136    1.9321    0.0037 H         1 <0>         0.1226
     34 H4          0.9476   -0.5258   -0.0098 H         1 <0>         0.1255
     35 H5         -1.1483   -1.8026    0.0022 H         1 <0>         0.1198
     36 H6         -5.6175    0.5639    0.0568 H         1 <0>         0.1703
     37 H7         -3.9934   -1.3981    0.0305 H         1 <0>         0.4171
     38 H8         -1.2101    3.1417    0.0361 H         1 <0>         0.1202
     39 H9         -5.3540    3.1538    0.5032 H         1 <0>         0.0760
     40 H10        -3.6975    3.7891    0.6466 H         1 <0>         0.0764
     41 H11        -3.4412    3.6772   -1.8172 H         1 <0>         0.0674
     42 H12        -5.0978    3.0420   -1.9607 H         1 <0>         0.0665
     43 H13        -5.1971    5.4694   -0.5204 H         1 <0>         0.4000
     44 H14        -6.6560    7.1285   -2.0636 H         1 <0>         0.1019
     45 H15        -4.9995    7.7638   -1.9202 H         1 <0>         0.1011
     46 H16        -6.6261    9.4098   -2.9690 H         1 <0>         0.1026
     47 H17        -5.2156    9.7833   -4.0204 H         1 <0>         0.1174
     48 H18        -6.2172    6.2822   -5.3840 H         1 <0>         0.3685
     49 H19        -7.5687    6.3989   -7.0350 H         1 <0>         0.4028
     50 H20        -8.9884    6.3187   -8.8863 H         1 <0>         0.4002
     51 H21       -11.6814    7.0903   -8.5271 H         1 <0>         0.0927
     52 H22       -10.8010    8.4519   -9.2613 H         1 <0>         0.0848
     53 H23       -11.9636    4.9148  -10.0523 H         1 <0>         0.1361
     54 H24       -11.8930    4.1606  -12.4121 H         1 <0>         0.1367
     55 H25       -10.7043    5.7122  -14.1041 H         1 <0>         0.1880
@<TRIPOS>BOND
     1    1    2 ar
     2    1   33 1
     3    1    9 ar
     4    2    3 ar
     5    2   34 1
     6    3    4 ar
     7    3   35 1
     8    4    5 1
     9    4    8 ar
    10    5   37 1
    11    5    6 1
    12    6    7 2
    13    6   36 1
    14    7    8 1
    15    7   10 1
    16    8    9 ar
    17    9   38 1
    18   10   11 1
    19   10   39 1
    20   10   40 1
    21   11   12 1
    22   11   41 1
    23   11   42 1
    24   12   13 am
    25   12   43 1
    26   13   14 2
    27   13   15 1
    28   15   16 1
    29   15   44 1
    30   15   45 1
    31   16   17 1
    32   16   22 1
    33   16   18 1
    34   18   19 1
    35   18   46 1
    36   18   47 1
    37   19   20 1
    38   20   21 1
    39   20   22 1
    40   20   23 1
    41   22   48 1
    42   23   24 am
    43   23   49 1
    44   24   25 2
    45   24   26 am
    46   26   27 1
    47   26   50 1
    48   27   28 1
    49   27   51 1
    50   27   52 1
    51   28   32 1
    52   28   29 2
    53   29   30 1
    54   29   53 1
    55   30   31 2
    56   30   54 1
    57   31   32 1
    58   31   55 1
@<TRIPOS>MOLECULE
ZINC44136182
   61    63     0     0     0
SMALL
USER_CHARGES

@<TRIPOS>ATOM
      1 C1          0.7624   -0.3656   -1.0792 C.3       1 <0>        -0.0559
      2 N1          0.0114   -0.0047    0.1306 N.4       1 <0>        -0.3862
      3 C2          0.0037    1.4562    0.2846 C.3       1 <0>        -0.0485
      4 C3         -1.3694   -0.4920    0.0134 C.3       1 <0>        -0.0127
      5 C4         -1.3711   -2.0219    0.0021 C.3       1 <0>        -0.0928
      6 H1         -0.7190   -2.3801   -0.7945 H         1 <0>         0.1044
      7 C5         -0.8647   -2.5425    1.3487 C.3       1 <0>        -0.1244
      8 C6         -0.8663   -4.0725    1.3374 C.3       1 <0>        -0.1182
      9 C7         -2.2899   -4.5791    1.0975 C.3       1 <0>        -0.1204
     10 C8         -2.7964   -4.0586   -0.2491 C.3       1 <0>        -0.1408
     11 C9         -2.7947   -2.5286   -0.2378 C.3       1 <0>         0.1984
     12 C10        -3.2936   -2.0159   -1.5642 C.ar      1 <0>        -0.0969
     13 C11        -2.4015   -1.7843   -2.5951 C.ar      1 <0>        -0.1757
     14 C12        -2.8560   -1.3140   -3.8131 C.ar      1 <0>        -0.0744
     15 C13        -4.2032   -1.0736   -4.0030 C.ar      1 <0>        -0.1807
     16 C14        -5.1001   -1.3051   -2.9704 C.ar      1 <0>         0.1555
     17 C15        -4.6422   -1.7830   -1.7509 C.ar      1 <0>        -0.1430
     18 O1         -6.4258   -1.0695   -3.1548 O.3       1 <0>        -0.3023
     19 C16        -6.8262   -0.5839   -4.4377 C.3       1 <0>         0.2045
     20 H2         -6.4703   -1.2644   -5.2112 H         1 <0>         0.1009
     21 C17        -8.3535   -0.4974   -4.4970 C.3       1 <0>         0.1086
     22 H3         -8.7822   -1.4781   -4.2906 H         1 <0>         0.0737
     23 C18        -8.8414    0.5058   -3.4472 C.3       1 <0>         0.1181
     24 H4         -9.9235    0.6141   -3.5216 H         1 <0>         0.0739
     25 C19        -8.1721    1.8600   -3.7012 C.3       1 <0>         0.0668
     26 H5         -8.4711    2.5652   -2.9257 H         1 <0>         0.0633
     27 C20        -6.6518    1.6824   -3.6726 C.3       1 <0>         0.0024
     28 H6         -6.3441    1.3416   -2.6841 H         1 <0>         0.0626
     29 O2         -6.2680    0.7142   -4.6513 O.3       1 <0>        -0.3336
     30 C21        -5.9862    2.9990   -3.9800 C.2       1 <0>         0.5022
     31 O3         -6.1098    3.9384   -3.2127 O.co2     1 <0>        -0.6888
     32 O4         -5.3241    3.1248   -4.9961 O.co2     1 <0>        -0.6650
     33 O5         -8.5721    2.3580   -4.9795 O.3       1 <0>        -0.5369
     34 O6         -8.4965    0.0375   -2.1419 O.3       1 <0>        -0.5399
     35 O7         -8.7571   -0.0638   -5.7974 O.3       1 <0>        -0.5107
     36 O8         -3.6497   -2.0591    0.8065 O.3       1 <0>        -0.5527
     37 H7          1.7870   -0.0041   -0.9922 H         1 <0>         0.1241
     38 H8          0.7681   -1.4496   -1.1935 H         1 <0>         0.1208
     39 H9          0.2893    0.0890   -1.9496 H         1 <0>         0.1263
     40 H10        -0.6258    1.7290    1.1315 H         1 <0>         0.1238
     41 H11         1.0204    1.8085    0.4592 H         1 <0>         0.1228
     42 H12        -0.3890    1.9151   -0.6227 H         1 <0>         0.1256
     43 H13        -1.9541   -0.1343    0.8609 H         1 <0>         0.1403
     44 H14        -1.8082   -0.1213   -0.9130 H         1 <0>         0.1385
     45 H15         0.1496   -2.1816    1.5196 H         1 <0>         0.0550
     46 H16        -1.5168   -2.1844    2.1453 H         1 <0>         0.0897
     47 H17        -0.2142   -4.4306    0.5408 H         1 <0>         0.0646
     48 H18        -0.5055   -4.4433    2.2967 H         1 <0>         0.0725
     49 H19        -2.2912   -5.6691    1.0894 H         1 <0>         0.0698
     50 H20        -2.9421   -4.2210    1.8940 H         1 <0>         0.0744
     51 H21        -2.1443   -4.4167   -1.0457 H         1 <0>         0.0768
     52 H22        -3.8106   -4.4195   -0.4200 H         1 <0>         0.0780
     53 H23        -1.3479   -1.9709   -2.4484 H         1 <0>         0.1137
     54 H24        -2.1572   -1.1339   -4.6167 H         1 <0>         0.1262
     55 H25        -4.5577   -0.7055   -4.9544 H         1 <0>         0.1416
     56 H26        -5.3391   -1.9685   -0.9470 H         1 <0>         0.1284
     57 H27        -8.1850    3.2146   -5.2065 H         1 <0>         0.3819
     58 H28        -8.7759    0.6252   -1.4266 H         1 <0>         0.3824
     59 H29        -8.4771   -0.6516   -6.5124 H         1 <0>         0.3773
     60 H30        -4.5700   -2.3427    0.7188 H         1 <0>         0.3904
     61 H31         0.4493   -0.4255    0.9364 H         1 <0>         0.4202
@<TRIPOS>BOND
     1    1    2 1
     2    1   37 1
     3    1   38 1
     4    1   39 1
     5    2    3 1
     6    2    4 1
     7    2   61 1
     8    3   40 1
     9    3   41 1
    10    3   42 1
    11    4    5 1
    12    4   43 1
    13    4   44 1
    14    5    6 1
    15    5   11 1
    16    5    7 1
    17    7    8 1
    18    7   45 1
    19    7   46 1
    20    8    9 1
    21    8   47 1
    22    8   48 1
    23    9   10 1
    24    9   49 1
    25    9   50 1
    26   10   11 1
    27   10   51 1
    28   10   52 1
    29   11   12 1
    30   11   36 1
    31   12   17 ar
    32   12   13 ar
    33   13   14 ar
    34   13   53 1
    35   14   15 ar
    36   14   54 1
    37   15   16 ar
    38   15   55 1
    39   16   17 ar
    40   16   18 1
    41   17   56 1
    42   18   19 1
    43   19   20 1
    44   19   29 1
    45   19   21 1
    46   21   22 1
    47   21   23 1
    48   21   35 1
    49   23   24 1
    50   23   25 1
    51   23   34 1
    52   25   26 1
    53   25   27 1
    54   25   33 1
    55   27   28 1
    56   27   29 1
    57   27   30 1
    58   30   31 2
    59   30   32 1
    60   33   57 1
    61   34   58 1
    62   35   59 1
    63   36   60 1
@<TRIPOS>MOLECULE
ZINC08214734
   92    98     0     0     0
SMALL
USER_CHARGES
(hexahydroxy-trimethyl-BLAHyl) 2-methylbut-2-enoate
@<TRIPOS>ATOM
      1 C1         -1.1687   -1.5787   10.9536 C.3       1 <0>        -0.1327
      2 C2         -1.8110   -2.7745   10.2989 C.2       1 <0>        -0.0490
      3 C3         -2.0989   -2.7472    8.9999 C.2       1 <0>        -0.1814
      4 C4         -2.7413   -3.9430    8.3452 C.3       1 <0>        -0.1091
      5 C5         -1.7905   -1.5511    8.2039 C.2       1 <0>         0.4991
      6 O1         -1.2724   -0.5868    8.7319 O.2       1 <0>        -0.5036
      7 O2         -2.0821   -1.5235    6.8881 O.3       1 <0>        -0.3362
      8 C6         -1.7495   -0.3093    6.1646 C.3       1 <0>         0.0582
      9 H1         -1.7841    0.5481    6.8367 H         1 <0>         0.0920
     10 C7         -0.3512   -0.4340    5.5437 C.3       1 <0>        -0.1328
     11 C8         -0.3223   -1.5847    4.5403 C.3       1 <0>        -0.1069
     12 C9         -1.4357   -1.4371    3.5022 C.3       1 <0>        -0.0761
     13 C10        -2.7990   -1.4794    4.2663 C.3       1 <0>        -0.0859
     14 H2         -2.8766   -2.3216    4.9539 H         1 <0>         0.1161
     15 C11        -2.7395   -0.1034    4.9911 C.3       1 <0>         0.2816
     16 O3         -2.0550    0.7841    4.0755 O.3       1 <0>        -0.3445
     17 C12        -1.5111    0.0060    3.0046 C.3       1 <0>         0.1329
     18 C13        -0.2457    0.6146    2.4341 C.3       1 <0>        -0.1466
     19 C14        -0.7216    1.5487    1.2654 C.3       1 <0>         0.1784
     20 C15        -0.0127    1.0858    0.0080 C.3       1 <0>        -0.1057
     21 H3          0.0021   -0.0041    0.0020 H         1 <0>         0.1274
     22 C16         1.4309    1.5877   -0.0031 C.3       1 <0>        -0.0124
     23 C17         3.5446    1.4954   -1.1343 C.3       1 <0>        -0.0027
     24 C18         4.3191    0.8939   -2.3063 C.3       1 <0>        -0.1127
     25 H4          5.3612    1.2096   -2.2560 H         1 <0>         0.1210
     26 C19         3.6937    1.3847   -3.6162 C.3       1 <0>        -0.1290
     27 C20         2.2251    0.9589   -3.6469 C.3       1 <0>        -0.1508
     28 C21         1.4909    1.5347   -2.4317 C.3       1 <0>         0.0103
     29 H5          1.5125    2.6236   -2.4756 H         1 <0>         0.1477
     30 C22         0.0387    1.0464   -2.4780 C.3       1 <0>         0.0991
     31 C23        -0.7189    1.5649   -1.2551 C.3       1 <0>         0.1595
     32 C24        -2.1435    1.0021   -1.2571 C.3       1 <0>         0.0963
     33 H6         -2.6355    1.2501   -2.1976 H         1 <0>         0.0696
     34 C25        -2.9054    1.6303   -0.0958 C.3       1 <0>        -0.1783
     35 C26        -2.2383    1.4124    1.2298 C.3       1 <0>         0.1781
     36 C27        -2.5273    0.0299    1.8242 C.3       1 <0>        -0.1485
     37 H7         -2.3278   -0.7639    1.1043 H         1 <0>         0.1123
     38 C28        -3.9168   -0.1102    2.4359 C.3       1 <0>        -0.1200
     39 C29        -3.9532   -1.4270    3.2615 C.3       1 <0>        -0.1092
     40 O4         -2.7605    2.3820    2.1404 O.3       1 <0>        -0.5243
     41 O5         -2.1015   -0.4170   -1.0947 O.3       1 <0>        -0.5378
     42 O6         -0.7491    2.9934   -1.2775 O.3       1 <0>        -0.5202
     43 C30        -0.6327    1.5661   -3.7508 C.3       1 <0>        -0.1936
     44 O7          0.0174   -0.3825   -2.4787 O.3       1 <0>        -0.5212
     45 C31         4.2424   -0.6328   -2.2420 C.3       1 <0>        -0.1718
     46 O8         -0.3600    2.9015    1.5500 O.3       1 <0>        -0.5091
     47 O9         -4.0235    0.3795    5.3914 O.3       1 <0>        -0.5174
     48 C32        -1.3478   -2.4594    2.3672 C.3       1 <0>        -0.1313
     49 H8         -0.2107   -1.3739   10.4758 H         1 <0>         0.0823
     50 H9         -1.8208   -0.7119   10.8466 H         1 <0>         0.0836
     51 H10        -1.0101   -1.7855   12.0120 H         1 <0>         0.0617
     52 H11        -2.0377   -3.6536   10.8839 H         1 <0>         0.1375
     53 H12        -1.9665   -4.6134    7.9733 H         1 <0>         0.0700
     54 H13        -3.3576   -4.4689    9.0743 H         1 <0>         0.0708
     55 H14        -3.3642   -3.6114    7.5145 H         1 <0>         0.0721
     56 H15         0.3783   -0.6230    6.3313 H         1 <0>         0.0727
     57 H16        -0.0976    0.4958    5.0346 H         1 <0>         0.0910
     58 H17        -0.4522   -2.5269    5.0727 H         1 <0>         0.0757
     59 H18         0.6420   -1.5911    4.0322 H         1 <0>         0.0662
     60 H19         0.2681    1.2005    3.1962 H         1 <0>         0.0930
     61 H20         0.4104   -0.1676    2.0523 H         1 <0>         0.0822
     62 H21         1.4345    2.6776   -0.0176 H         1 <0>         0.1441
     63 H22         1.9426    1.2365    0.8930 H         1 <0>         0.1289
     64 H23         3.6044    2.5827   -1.1817 H         1 <0>         0.1318
     65 H24         3.9830    1.1520   -0.1973 H         1 <0>         0.1290
     66 H25         3.7607    2.4714   -3.6689 H         1 <0>         0.0842
     67 H26         4.2206    0.9420   -4.4615 H         1 <0>         0.0972
     68 H27         1.7596    1.3293   -4.5602 H         1 <0>         0.1144
     69 H28         2.1629   -0.1291   -3.6256 H         1 <0>         0.0897
     70 H29        -2.9927    2.7023   -0.2725 H         1 <0>         0.0939
     71 H30        -3.9057    1.1990   -0.0583 H         1 <0>         0.0787
     72 H31        -4.1122    0.7291    3.1034 H         1 <0>         0.0879
     73 H32        -4.6668   -0.1360    1.6454 H         1 <0>         0.0639
     74 H33        -3.8604   -2.2614    2.5664 H         1 <0>         0.0655
     75 H34        -4.8983   -1.5127    3.7977 H         1 <0>         0.0774
     76 H35        -3.7184    2.3315    2.2621 H         1 <0>         0.3706
     77 H36        -2.9720   -0.8380   -1.0872 H         1 <0>         0.3841
     78 H37        -1.1854    3.3654   -2.0561 H         1 <0>         0.3856
     79 H38        -0.0957    1.1934   -4.6230 H         1 <0>         0.0822
     80 H39        -1.6655    1.2193   -3.7844 H         1 <0>         0.0899
     81 H40        -0.6152    2.6560   -3.7517 H         1 <0>         0.0790
     82 H41         0.4773   -0.7823   -3.2295 H         1 <0>         0.3814
     83 H42         3.2000   -0.9469   -2.2972 H         1 <0>         0.0518
     84 H43         4.7953   -1.0600   -3.0786 H         1 <0>         0.0855
     85 H44         4.6771   -0.9793   -1.3044 H         1 <0>         0.0736
     86 H45         0.5885    3.0356    1.6826 H         1 <0>         0.3597
     87 H46        -3.9969    1.2238    5.8622 H         1 <0>         0.3880
     88 H47        -0.4538   -2.2676    1.7738 H         1 <0>         0.0579
     89 H48        -1.2969   -3.4643    2.7864 H         1 <0>         0.0668
     90 H49        -2.2301   -2.3746    1.7328 H         1 <0>         0.0734
     91 N1          2.1372    1.0576   -1.1823 N.4       1 <0>        -0.3788
     92 H50         2.1028    0.0316   -1.1618 H         1 <0>         0.4252
@<TRIPOS>BOND
     1    1    2 1
     2    1   49 1
     3    1   50 1
     4    1   51 1
     5    2    3 2
     6    2   52 1
     7    3    4 1
     8    3    5 1
     9    4   53 1
    10    4   54 1
    11    4   55 1
    12    5    6 2
    13    5    7 1
    14    7    8 1
    15    8    9 1
    16    8   15 1
    17    8   10 1
    18   10   11 1
    19   10   56 1
    20   10   57 1
    21   11   12 1
    22   11   58 1
    23   11   59 1
    24   12   17 1
    25   12   13 1
    26   12   48 1
    27   13   14 1
    28   13   39 1
    29   13   15 1
    30   15   16 1
    31   15   47 1
    32   16   17 1
    33   17   36 1
    34   17   18 1
    35   18   19 1
    36   18   60 1
    37   18   61 1
    38   19   35 1
    39   19   20 1
    40   19   46 1
    41   20   21 1
    42   20   31 1
    43   20   22 1
    44   22   62 1
    45   22   63 1
    46   22   91 1
    47   23   24 1
    48   23   64 1
    49   23   65 1
    50   23   91 1
    51   24   25 1
    52   24   26 1
    53   24   45 1
    54   26   27 1
    55   26   66 1
    56   26   67 1
    57   27   28 1
    58   27   68 1
    59   27   69 1
    60   28   29 1
    61   28   30 1
    62   28   91 1
    63   30   31 1
    64   30   43 1
    65   30   44 1
    66   31   32 1
    67   31   42 1
    68   32   33 1
    69   32   34 1
    70   32   41 1
    71   34   35 1
    72   34   70 1
    73   34   71 1
    74   35   36 1
    75   35   40 1
    76   36   37 1
    77   36   38 1
    78   38   39 1
    79   38   72 1
    80   38   73 1
    81   39   74 1
    82   39   75 1
    83   40   76 1
    84   41   77 1
    85   42   78 1
    86   43   79 1
    87   43   80 1
    88   43   81 1
    89   44   82 1
    90   45   83 1
    91   45   84 1
    92   45   85 1
    93   46   86 1
    94   47   87 1
    95   48   88 1
    96   48   89 1
    97   48   90 1
    98   91   92 1
@<TRIPOS>MOLECULE
ZINC13781163
   63    66     0     0     0
SMALL
USER_CHARGES
(3R,6S,8aS)-N-(3-guanidinopropyl)-6-(1-naphthylsulfonylamino)-5-oxo-2,3,6,7,8,8a-hexahydrothiazolo[2,3-f]pyridine-3-carboxamide
@<TRIPOS>ATOM
      1 C1         -1.7297   -0.8437    0.2667 C.ar      1 <0>        -0.1255
      2 C2         -0.5507   -0.1055    0.1786 C.ar      1 <0>        -0.0901
      3 C3          0.4981   -0.5465   -0.5681 C.ar      1 <0>        -0.1260
      4 C4          0.3944   -1.7647   -1.2615 C.ar      1 <0>         0.0635
      5 C5         -0.8047   -2.5153   -1.1719 C.ar      1 <0>        -0.0697
      6 C6         -1.8663   -2.0272   -0.3911 C.ar      1 <0>        -0.0937
      7 C7         -0.9083   -3.7331   -1.8651 C.ar      1 <0>        -0.0409
      8 C8          0.1411   -4.1747   -2.6113 C.ar      1 <0>        -0.1481
      9 C9          1.3198   -3.4368   -2.6993 C.ar      1 <0>         0.0078
     10 C10         1.4560   -2.2526   -2.0419 C.ar      1 <0>        -0.6560
     11 S1          2.9559   -1.3367   -2.1687 S.o2      1 <0>         2.6914
     12 O1          3.8254   -2.0943   -2.9989 O.2       1 <0>        -0.9520
     13 O2          2.5896    0.0027   -2.4705 O.2       1 <0>        -0.9459
     14 N1          3.6430   -1.3115   -0.6621 N.pl3     1 <0>        -1.0973
     15 C11         4.1449   -2.5515   -0.0651 C.3       1 <0>         0.1475
     16 H1          4.2923   -3.2926   -0.8507 H         1 <0>         0.1321
     17 C12         5.4823   -2.2736    0.6174 C.3       1 <0>        -0.1272
     18 C13         5.8619   -3.4612    1.5107 C.3       1 <0>        -0.1233
     19 C14         4.8631   -3.5193    2.6676 C.3       1 <0>         0.1891
     20 H2          4.9613   -2.6710    3.3449 H         1 <0>         0.1307
     21 N2          3.4969   -3.6213    2.0899 N.am      1 <0>        -0.5992
     22 C15         3.1347   -3.0696    0.9178 C.2       1 <0>         0.5210
     23 O3          1.9555   -2.9875    0.6467 O.2       1 <0>        -0.4964
     24 C16         2.6127   -4.4121    2.9669 C.3       1 <0>         0.1056
     25 H3          1.6607   -4.5929    2.4676 H         1 <0>         0.1384
     26 C17         3.3314   -5.7711    3.2486 C.3       1 <0>        -0.0698
     27 S2          5.0388   -5.1286    3.5422 S.3       1 <0>        -0.2714
     28 C18         2.3835   -3.6758    4.2617 C.2       1 <0>         0.5200
     29 O4          2.9030   -2.5953    4.4449 O.2       1 <0>        -0.5096
     30 N3          1.6014   -4.2179    5.2159 N.am      1 <0>        -0.7298
     31 C19         1.3786   -3.5021    6.4746 C.3       1 <0>         0.1247
     32 C20         0.4609   -4.3298    7.3766 C.3       1 <0>        -0.1473
     33 C21         0.2284   -3.5822    8.6911 C.3       1 <0>         0.0973
     34 N4         -0.6503   -4.3749    9.5548 N.pl3     1 <0>        -0.6979
     35 C22        -1.0021   -3.9020   10.7969 C.cat     1 <0>         0.7412
     36 N5         -0.5294   -2.6852   11.2283 N.pl3     1 <0>        -0.8041
     37 H4         -2.5473   -0.4706    0.8658 H         1 <0>         0.1235
     38 H5         -0.4683    0.8308    0.7107 H         1 <0>         0.1251
     39 H6          1.4054    0.0362   -0.6271 H         1 <0>         0.1256
     40 H7         -2.7858   -2.5884   -0.3132 H         1 <0>         0.1273
     41 H8         -1.8156   -4.3158   -1.8060 H         1 <0>         0.1322
     42 H9          0.0605   -5.1132   -3.1395 H         1 <0>         0.1332
     43 H10         2.1375   -3.8100   -3.2980 H         1 <0>         0.1421
     44 H11         3.7130   -0.4756   -0.1750 H         1 <0>         0.4237
     45 H12         6.2529   -2.1282   -0.1397 H         1 <0>         0.1014
     46 H13         5.3987   -1.3736    1.2267 H         1 <0>         0.0855
     47 H14         6.8701   -3.3215    1.9008 H         1 <0>         0.1036
     48 H15         5.8136   -4.3857    0.9354 H         1 <0>         0.0927
     49 H16         2.9295   -6.2599    4.1361 H         1 <0>         0.1209
     50 H17         3.2953   -6.4302    2.3813 H         1 <0>         0.1161
     51 H18         1.1859   -5.0821    5.0695 H         1 <0>         0.4030
     52 H19         2.3333   -3.3426    6.9758 H         1 <0>         0.0787
     53 H20         0.9118   -2.5392    6.2672 H         1 <0>         0.0759
     54 H21        -0.4937   -4.4893    6.8754 H         1 <0>         0.0892
     55 H22         0.9277   -5.2928    7.5840 H         1 <0>         0.0902
     56 H23         1.1830   -3.4228    9.1924 H         1 <0>         0.0966
     57 H24        -0.2384   -2.6193    8.4837 H         1 <0>         0.0958
     58 H25        -0.9838   -5.2333    9.2503 H         1 <0>         0.4350
     59 H26        -2.0885   -4.3588   12.4580 H         1 <0>         0.4532
     60 H27         0.0523   -2.1604   10.6565 H         1 <0>         0.4396
     61 H28        -0.7777   -2.3515   12.1047 H         1 <0>         0.4394
     62 N6         -1.7993   -4.6661   11.5293 N.pl3     1 <0>        -0.7960
     63 H29        -2.1260   -5.5676   11.1620 H         1 <0>         0.4572
@<TRIPOS>BOND
     1    1    6 ar
     2    1    2 ar
     3    1   37 1
     4    2    3 ar
     5    2   38 1
     6    3    4 ar
     7    3   39 1
     8    4   10 ar
     9    4    5 ar
    10    5    6 ar
    11    5    7 ar
    12    6   40 1
    13    7    8 ar
    14    7   41 1
    15    8    9 ar
    16    8   42 1
    17    9   10 ar
    18    9   43 1
    19   10   11 1
    20   11   12 2
    21   11   13 2
    22   11   14 1
    23   14   15 1
    24   14   44 1
    25   15   16 1
    26   15   22 1
    27   15   17 1
    28   17   18 1
    29   17   45 1
    30   17   46 1
    31   18   19 1
    32   18   47 1
    33   18   48 1
    34   19   20 1
    35   19   27 1
    36   19   21 1
    37   21   22 am
    38   21   24 1
    39   22   23 2
    40   24   25 1
    41   24   26 1
    42   24   28 1
    43   26   27 1
    44   26   49 1
    45   26   50 1
    46   28   29 2
    47   28   30 am
    48   30   31 1
    49   30   51 1
    50   31   32 1
    51   31   52 1
    52   31   53 1
    53   32   33 1
    54   32   54 1
    55   32   55 1
    56   33   34 1
    57   33   56 1
    58   33   57 1
    59   34   35 1
    60   34   58 1
    61   35   36 1
    62   35   62 2
    63   36   60 1
    64   36   61 1
    65   59   62 1
    66   62   63 1
@<TRIPOS>MOLECULE
ZINC22610443
   56    59     0     0     0
SMALL
USER_CHARGES
(5R)-2-(4-carbamoyl-1-piperidyl)-4,7-dioxo-N-[3-(trifluoromethoxy)phenyl]-3,5,6,8-tetrahydropyrido[2,3-d]pyrimidine-5-carboxamide
@<TRIPOS>ATOM
      1 C1         -0.1821   -8.1531    4.6968 C.ar      1 <0>        -0.0561
      2 C2         -0.2709   -7.7150    3.3895 C.ar      1 <0>        -0.1625
      3 C3          0.2005   -6.4548    3.0450 C.ar      1 <0>         0.1937
      4 C4          0.7661   -5.6384    4.0146 C.ar      1 <0>        -0.1322
      5 C5          0.8473   -6.0788    5.3261 C.ar      1 <0>         0.1265
      6 C6          0.3750   -7.3393    5.6646 C.ar      1 <0>        -0.2091
      7 O1          1.3942   -5.2791    6.2792 O.3       1 <0>        -0.3090
      8 C7          1.4509   -5.7999    7.6087 C.3       1 <0>         0.6049
      9 F1          2.2144   -6.9722    7.6182 F         1 <0>        -0.1641
     10 F2          2.0384   -4.8539    8.4555 F         1 <0>        -0.1301
     11 F3          0.1554   -6.0836    8.0541 F         1 <0>        -0.1639
     12 N1          0.1106   -6.0111    1.7211 N.am      1 <0>        -0.6852
     13 C8         -0.0893   -4.7039    1.4606 C.2       1 <0>         0.5167
     14 O2         -0.2867   -3.9274    2.3711 O.2       1 <0>        -0.5020
     15 C9         -0.0674   -4.2072    0.0380 C.3       1 <0>        -0.0235
     16 H1         -0.8639   -4.7084   -0.5315 H         1 <0>         0.1339
     17 C10         1.2973   -4.5059   -0.5851 C.3       1 <0>        -0.1366
     18 C11         2.3345   -3.5823   -0.0026 C.2       1 <0>         0.5316
     19 O3          3.4537   -3.9968    0.2119 O.2       1 <0>        -0.5005
     20 N2          2.0333   -2.3040    0.2826 N.am      1 <0>        -0.6539
     21 C12         0.7365   -1.8354    0.1627 C.2       1 <0>         0.4736
     22 C13        -0.3151   -2.7227    0.0215 C.2       1 <0>        -0.3376
     23 C14        -1.6128   -2.2227   -0.1249 C.2       1 <0>         0.5674
     24 O4         -2.5617   -2.9803   -0.2515 O.2       1 <0>        -0.5356
     25 N3         -1.7948   -0.8846   -0.1236 N.am      1 <0>        -0.6518
     26 H2         -2.8043   -0.4667   -0.2514 H         1 <0>         0.4462
     27 C15        -0.7299   -0.0525    0.0358 C.2       1 <0>         0.6117
     28 N4          0.4937   -0.5191    0.1706 N.2       1 <0>        -0.5915
     29 N5         -0.9351    1.3013    0.0509 N.pl3     1 <0>        -0.4698
     30 C16        -1.7311    1.7258   -1.1079 C.3       1 <0>         0.0529
     31 C17        -2.0631    3.2145   -0.9825 C.3       1 <0>        -0.1092
     32 C18        -0.7620    4.0184   -0.9113 C.3       1 <0>        -0.1138
     33 C19         0.0702    3.5238    0.2750 C.3       1 <0>        -0.1050
     34 C20         0.3404    2.0262    0.1132 C.3       1 <0>         0.0708
     35 C21        -1.0808    5.4799   -0.7284 C.2       1 <0>         0.5214
     36 O5         -0.6823    6.0692    0.2539 O.2       1 <0>        -0.5449
     37 N6         -1.8089    6.1321   -1.6563 N.am      1 <0>        -0.8789
     38 H3         -0.5492   -9.1333    4.9629 H         1 <0>         0.1389
     39 H4         -0.7075   -8.3527    2.6351 H         1 <0>         0.1362
     40 H5          1.1374   -4.6598    3.7485 H         1 <0>         0.1452
     41 H6          0.4427   -7.6844    6.6858 H         1 <0>         0.1348
     42 H7          0.2031   -6.7291    0.8929 H         1 <0>         0.4398
     43 H8          1.5770   -5.5484   -0.3729 H         1 <0>         0.1191
     44 H9          1.2445   -4.3548   -1.6734 H         1 <0>         0.1248
     45 H10         2.8225   -1.6143    0.6165 H         1 <0>         0.4479
     46 H11        -1.1561    1.5552   -2.0300 H         1 <0>         0.0690
     47 H12        -2.6641    1.1443   -1.1447 H         1 <0>         0.0920
     48 H13        -2.6467    3.5350   -1.8581 H         1 <0>         0.0880
     49 H14        -2.6510    3.3833   -0.0682 H         1 <0>         0.0875
     50 H15        -0.1946    3.9010   -1.8463 H         1 <0>         0.1003
     51 H16         1.0250    4.0692    0.3059 H         1 <0>         0.0897
     52 H17        -0.4828    3.6995    1.2095 H         1 <0>         0.0860
     53 H18         0.9259    1.6649    0.9715 H         1 <0>         0.1075
     54 H19         0.9056    1.8542   -0.8147 H         1 <0>         0.0665
     55 H20        -2.0416    7.1989   -1.5228 H         1 <0>         0.4239
     56 H21        -2.1705    5.5976   -2.5471 H         1 <0>         0.4184
@<TRIPOS>BOND
     1    1    6 ar
     2    1    2 ar
     3    1   38 1
     4    2    3 ar
     5    2   39 1
     6    3    4 ar
     7    3   12 1
     8    4    5 ar
     9    4   40 1
    10    5    6 ar
    11    5    7 1
    12    6   41 1
    13    7    8 1
    14    8    9 1
    15    8   10 1
    16    8   11 1
    17   12   13 am
    18   12   42 1
    19   13   14 2
    20   13   15 1
    21   15   16 1
    22   15   22 1
    23   15   17 1
    24   17   18 1
    25   17   43 1
    26   17   44 1
    27   18   19 2
    28   18   20 am
    29   20   21 1
    30   20   45 1
    31   21   28 1
    32   21   22 2
    33   22   23 1
    34   23   24 2
    35   23   25 am
    36   25   26 1
    37   25   27 1
    38   27   28 2
    39   27   29 1
    40   29   34 1
    41   29   30 1
    42   30   31 1
    43   30   46 1
    44   30   47 1
    45   31   32 1
    46   31   48 1
    47   31   49 1
    48   32   33 1
    49   32   35 1
    50   32   50 1
    51   33   34 1
    52   33   51 1
    53   33   52 1
    54   34   53 1
    55   34   54 1
    56   35   36 2
    57   35   37 am
    58   37   55 1
    59   37   56 1
@<TRIPOS>MOLECULE
ZINC39560092
   70    75     0     0     0
SMALL
USER_CHARGES

@<TRIPOS>ATOM
      1 C1         -0.0173    1.4248    0.0099 C.3       1 <0>         0.0263
      2 O1          0.0021   -0.0041    0.0020 O.3       1 <0>        -0.3190
      3 C2         -1.2009   -0.6378    0.0101 C.ar      1 <0>         0.1176
      4 C3         -2.3637    0.1221    0.0196 C.ar      1 <0>        -0.1974
      5 C4         -3.6221   -0.4568    0.0292 C.ar      1 <0>        -0.0514
      6 C5         -3.6750   -1.8472    0.0285 C.ar      1 <0>         0.0593
      7 C6         -2.4961   -2.6241    0.0174 C.ar      1 <0>        -0.0456
      8 C7         -1.2319   -2.0257    0.0029 C.ar      1 <0>        -0.1149
      9 C8         -2.9291   -4.0059    0.0171 C.2       1 <0>        -0.1394
     10 C9         -4.2845   -3.9988    0.0229 C.2       1 <0>         0.0373
     11 N1         -4.7603   -2.7129    0.0387 N.am      1 <0>        -0.4297
     12 C10        -6.0135   -2.2704    0.0723 C.2       1 <0>         0.5855
     13 O2         -6.0999   -1.0616    0.1844 O.2       1 <0>        -0.5396
     14 C11        -7.2490   -2.9138    0.0045 C.2       1 <0>        -0.3212
     15 C12        -8.3461   -2.1189   -0.0410 C.2       1 <0>         0.2167
     16 O3         -9.5970   -2.5650   -0.1209 O.3       1 <0>        -0.3199
     17 C13        -9.8558   -3.9516   -0.3114 C.3       1 <0>         0.2605
     18 H1         -9.7856   -4.1924   -1.3721 H         1 <0>         0.1029
     19 C14        -8.8243   -4.7712    0.4680 C.3       1 <0>        -0.0753
     20 H2         -8.9997   -5.8340    0.3009 H         1 <0>         0.1131
     21 C15        -7.4235   -4.3964   -0.0299 C.3       1 <0>        -0.0198
     22 H3         -7.3485   -4.7139   -1.0699 H         1 <0>         0.0807
     23 C16        -6.3801   -5.1599    0.7358 C.3       1 <0>        -0.1053
     24 C17        -5.0617   -5.2838    0.0281 C.3       1 <0>         0.1538
     25 H4         -5.2531   -5.5723   -1.0055 H         1 <0>         0.0982
     26 N2         -4.2224   -6.3271    0.6374 N.3       1 <0>        -0.6619
     27 C18        -2.9650   -6.4949   -0.0952 C.3       1 <0>         0.0558
     28 C19        -2.0874   -5.2519    0.0087 C.3       1 <0>        -0.0875
     29 C20        -8.9412   -4.4644    1.9388 C.2       1 <0>        -0.1488
     30 C21        -9.2237   -5.4217    2.7872 C.2       1 <0>        -0.1673
     31 O4        -11.1681   -4.2612    0.1620 O.3       1 <0>        -0.3265
     32 C22       -12.2186   -3.7217   -0.6426 C.3       1 <0>         0.2212
     33 H5        -12.0354   -2.6613   -0.8163 H         1 <0>         0.0699
     34 C23       -13.5567   -3.8968    0.0803 C.3       1 <0>         0.0670
     35 H6        -13.5418   -3.3364    1.0151 H         1 <0>         0.0711
     36 C24       -14.6838   -3.3710   -0.8138 C.3       1 <0>         0.0787
     37 H7        -14.5464   -2.3031   -0.9837 H         1 <0>         0.0792
     38 C25       -14.6456   -4.1122   -2.1538 C.3       1 <0>         0.0908
     39 H8        -15.4094   -3.7058   -2.8168 H         1 <0>         0.0746
     40 C26       -13.2654   -3.9287   -2.7904 C.3       1 <0>         0.1148
     41 H9        -13.0960   -2.8711   -2.9924 H         1 <0>         0.0803
     42 O5        -12.2612   -4.4094   -1.8945 O.3       1 <0>        -0.3713
     43 C27       -13.1993   -4.7155   -4.1009 C.3       1 <0>         0.0890
     44 O6        -11.9552   -4.4518   -4.7526 O.3       1 <0>        -0.5701
     45 O7        -14.8919   -5.5031   -1.9374 O.3       1 <0>        -0.5287
     46 O8        -15.9433   -3.5956   -0.1771 O.3       1 <0>        -0.5470
     47 O9        -13.7721   -5.2821    0.3573 O.3       1 <0>        -0.5215
     48 H10         1.0053    1.8021    0.0021 H         1 <0>         0.1005
     49 H11        -0.5445    1.7859   -0.8732 H         1 <0>         0.0556
     50 H12        -0.5275    1.7763    0.9067 H         1 <0>         0.0556
     51 H13        -2.2840    1.1992    0.0199 H         1 <0>         0.1324
     52 H14        -4.5201    0.1430    0.0371 H         1 <0>         0.1577
     53 H15        -0.3260   -2.6135   -0.0091 H         1 <0>         0.1422
     54 H16        -8.1944   -1.0500   -0.0098 H         1 <0>         0.1971
     55 H17        -6.2152   -4.6591    1.6898 H         1 <0>         0.0678
     56 H18        -6.7612   -6.1613    0.9358 H         1 <0>         0.0970
     57 H19        -4.0496   -6.1290    1.6116 H         1 <0>         0.3473
     58 H20        -2.4246   -7.3478    0.3155 H         1 <0>         0.0904
     59 H21        -3.1872   -6.6874   -1.1448 H         1 <0>         0.0781
     60 H22        -1.4076   -5.2201   -0.8428 H         1 <0>         0.0847
     61 H23        -1.5063   -5.2987    0.9296 H         1 <0>         0.0781
     62 H24        -8.7920   -3.4552    2.2934 H         1 <0>         0.1074
     63 H25        -9.3729   -6.4309    2.4326 H         1 <0>         0.1004
     64 H26        -9.3074   -5.2018    3.8412 H         1 <0>         0.1004
     65 H27       -13.2796   -5.7817   -3.8890 H         1 <0>         0.0703
     66 H28       -14.0209   -4.4110   -4.7493 H         1 <0>         0.0647
     67 H29       -11.8442   -4.9187   -5.5921 H         1 <0>         0.3846
     68 H30       -15.7490   -5.6922   -1.5316 H         1 <0>         0.3853
     69 H31       -16.0336   -3.1591    0.6810 H         1 <0>         0.3869
     70 H32       -13.0918   -5.6817    0.9164 H         1 <0>         0.3804
@<TRIPOS>BOND
     1    1    2 1
     2    1   48 1
     3    1   49 1
     4    1   50 1
     5    2    3 1
     6    3    8 ar
     7    3    4 ar
     8    4    5 ar
     9    4   51 1
    10    5    6 ar
    11    5   52 1
    12    6   11 1
    13    6    7 ar
    14    7    8 ar
    15    7    9 1
    16    8   53 1
    17    9   28 1
    18    9   10 2
    19   10   24 1
    20   10   11 1
    21   11   12 am
    22   12   13 2
    23   12   14 1
    24   14   21 1
    25   14   15 2
    26   15   16 1
    27   15   54 1
    28   16   17 1
    29   17   18 1
    30   17   19 1
    31   17   31 1
    32   19   20 1
    33   19   21 1
    34   19   29 1
    35   21   22 1
    36   21   23 1
    37   23   24 1
    38   23   55 1
    39   23   56 1
    40   24   25 1
    41   24   26 1
    42   26   27 1
    43   26   57 1
    44   27   28 1
    45   27   58 1
    46   27   59 1
    47   28   60 1
    48   28   61 1
    49   29   30 2
    50   29   62 1
    51   30   63 1
    52   30   64 1
    53   31   32 1
    54   32   33 1
    55   32   42 1
    56   32   34 1
    57   34   35 1
    58   34   36 1
    59   34   47 1
    60   36   37 1
    61   36   38 1
    62   36   46 1
    63   38   39 1
    64   38   40 1
    65   38   45 1
    66   40   41 1
    67   40   42 1
    68   40   43 1
    69   43   44 1
    70   43   65 1
    71   43   66 1
    72   44   67 1
    73   45   68 1
    74   46   69 1
    75   47   70 1
@<TRIPOS>MOLECULE
ZINC14161190
   70    73     0     0     0
SMALL
USER_CHARGES

@<TRIPOS>ATOM
      1 C1          5.5023    2.3192    9.8110 C.3       1 <0>        -0.1070
      2 C2          6.7780    1.9180    9.1163 C.ar      1 <0>         0.1972
      3 C3          8.0082    2.2693    9.6514 C.ar      1 <0>        -0.2534
      4 C4          9.1597    1.8818    8.9828 C.ar      1 <0>         0.2078
      5 N1          9.0537    1.1921    7.8603 N.ar      1 <0>        -0.5092
      6 C5          7.8591    0.8699    7.3715 C.ar      1 <0>         0.5215
      7 N2          6.7370    1.2226    7.9930 N.ar      1 <0>        -0.5890
      8 N3          7.7834    0.1588    6.2131 N.2       1 <0>        -0.5397
      9 C6          6.6099   -0.1801    5.7249 C.2       1 <0>         0.6933
     10 N4          5.4589    0.2253    6.3580 N.pl3     1 <0>        -0.6414
     11 C7          4.5396   -0.6859    6.7335 C.2       1 <0>         0.5504
     12 S1          4.8702   -2.3567    6.5607 S.2       1 <0>        -0.5922
     13 N5          3.3600   -0.2817    7.2451 N.pl3     1 <0>        -0.6655
     14 C8          2.4052   -1.2695    7.7538 C.3       1 <0>         0.2085
     15 C9          1.1315   -0.5740    8.1603 C.2       1 <0>        -0.0598
     16 C10         0.0687   -0.3519    7.3663 C.2       1 <0>        -0.1675
     17 C11        -0.8940    0.3245    8.1503 C.2       1 <0>        -0.2201
     18 C12        -0.3618    0.4752    9.3765 C.2       1 <0>        -0.0133
     19 O1          0.8629   -0.0761    9.3783 O.3       1 <0>        -0.1697
     20 N6          6.5347   -0.9364    4.5868 N.pl3     1 <0>        -0.5625
     21 C13         5.2315   -1.3327    4.0360 C.3       1 <0>         0.1238
     22 C14         5.1679   -0.9079    2.5655 C.3       1 <0>        -0.1466
     23 C15         6.3696   -1.4904    1.8180 C.3       1 <0>         0.0373
     24 C16         7.6638   -0.9423    2.4236 C.3       1 <0>        -0.1573
     25 C17         7.7556   -1.3623    3.8890 C.3       1 <0>         0.1255
     26 C18         6.3558   -2.9925    1.9384 C.2       1 <0>         0.5127
     27 O2          5.3334   -3.5666    2.2484 O.2       1 <0>        -0.4744
     28 N7          7.4795   -3.6980    1.7016 N.am      1 <0>        -0.8418
     29 N8          6.2942   -1.1127    0.4004 N.4       1 <0>        -0.3688
     30 C19         5.0323   -1.6013   -0.1682 C.3       1 <0>        -0.0183
     31 C20         4.9116   -1.1410   -1.6225 C.3       1 <0>        -0.1421
     32 C21         6.0872   -1.7008   -2.4286 C.3       1 <0>        -0.1406
     33 C22         7.3991   -1.2457   -1.7827 C.3       1 <0>        -0.1405
     34 C23         7.4276   -1.7022   -0.3225 C.3       1 <0>        -0.0320
     35 C24        10.5166    2.2434    9.5297 C.3       1 <0>        -0.1098
     36 H1          5.1670    1.5051   10.4536 H         1 <0>         0.0866
     37 H2          5.6817    3.2086   10.4150 H         1 <0>         0.0858
     38 H3          4.7354    2.5340    9.0668 H         1 <0>         0.0732
     39 H4          8.0682    2.8337   10.5702 H         1 <0>         0.1478
     40 H5          3.1433    0.6633    7.2765 H         1 <0>         0.4041
     41 H6          2.1877   -1.9995    6.9742 H         1 <0>         0.1270
     42 H7          2.8335   -1.7774    8.6179 H         1 <0>         0.1048
     43 H8         -0.0301   -0.6353    6.3289 H         1 <0>         0.1522
     44 H9         -1.8694    0.6567    7.8267 H         1 <0>         0.1549
     45 H10        -0.8399    0.9546   10.2179 H         1 <0>         0.2096
     46 H11         5.1175   -2.4142    4.1092 H         1 <0>         0.1269
     47 H12         4.4344   -0.8406    4.5933 H         1 <0>         0.0920
     48 H13         4.2461   -1.2804    2.1187 H         1 <0>         0.1144
     49 H14         5.1910    0.1799    2.4997 H         1 <0>         0.0986
     50 H15         8.5185   -1.3393    1.8758 H         1 <0>         0.1077
     51 H16         7.6634    0.1458    2.3591 H         1 <0>         0.1110
     52 H17         8.6233   -0.8898    4.3494 H         1 <0>         0.1347
     53 H18         7.8520   -2.4463    3.9500 H         1 <0>         0.0864
     54 H19         8.3146   -3.2360    1.5280 H         1 <0>         0.4056
     55 H20         7.4532   -4.6676    1.7048 H         1 <0>         0.4242
     56 H21         5.0146   -2.6905   -0.1296 H         1 <0>         0.1298
     57 H22         4.1967   -1.2046    0.4085 H         1 <0>         0.1363
     58 H23         3.9749   -1.5063   -2.0434 H         1 <0>         0.1150
     59 H24         4.9290   -0.0519   -1.6622 H         1 <0>         0.0893
     60 H25         6.0412   -2.7899   -2.4319 H         1 <0>         0.0822
     61 H26         6.0369   -1.3297   -3.4522 H         1 <0>         0.0972
     62 H27         8.2403   -1.6859   -2.3181 H         1 <0>         0.1155
     63 H28         7.4680   -0.1587   -1.8257 H         1 <0>         0.0902
     64 H29         8.3603   -1.3799    0.1403 H         1 <0>         0.1349
     65 H30         7.3588   -2.7892   -0.2806 H         1 <0>         0.1341
     66 H31        10.8607    1.4545   10.1986 H         1 <0>         0.0898
     67 H32        11.2221    2.3551    8.7065 H         1 <0>         0.0853
     68 H33        10.4483    3.1820   10.0797 H         1 <0>         0.0846
     69 H34         6.3307   -0.1076    0.3188 H         1 <0>         0.4270
     70 H35         5.3085    1.1672    6.5345 H         1 <0>         0.4253
@<TRIPOS>BOND
     1    1    2 1
     2    1   36 1
     3    1   37 1
     4    1   38 1
     5    2    7 ar
     6    2    3 ar
     7    3    4 ar
     8    3   39 1
     9    4    5 ar
    10    4   35 1
    11    5    6 ar
    12    6    7 ar
    13    6    8 1
    14    8    9 2
    15    9   10 1
    16    9   20 1
    17   10   11 1
    18   10   70 1
    19   11   12 2
    20   11   13 1
    21   13   14 1
    22   13   40 1
    23   14   15 1
    24   14   41 1
    25   14   42 1
    26   15   19 1
    27   15   16 2
    28   16   17 1
    29   16   43 1
    30   17   18 2
    31   17   44 1
    32   18   19 1
    33   18   45 1
    34   20   25 1
    35   20   21 1
    36   21   22 1
    37   21   46 1
    38   21   47 1
    39   22   23 1
    40   22   48 1
    41   22   49 1
    42   23   24 1
    43   23   26 1
    44   23   29 1
    45   24   25 1
    46   24   50 1
    47   24   51 1
    48   25   52 1
    49   25   53 1
    50   26   27 2
    51   26   28 am
    52   28   54 1
    53   28   55 1
    54   29   34 1
    55   29   30 1
    56   29   69 1
    57   30   31 1
    58   30   56 1
    59   30   57 1
    60   31   32 1
    61   31   58 1
    62   31   59 1
    63   32   33 1
    64   32   60 1
    65   32   61 1
    66   33   34 1
    67   33   62 1
    68   33   63 1
    69   34   64 1
    70   34   65 1
    71   35   66 1
    72   35   67 1
    73   35   68 1
@<TRIPOS>MOLECULE
ZINC04501928
   42    45     0     0     0
SMALL
USER_CHARGES
3-(5-chloro-3-methyl-1-phenyl-pyrazol-4-yl)-7,8-dimethyl-9-thia-2,4-diazabicyclo[4.3.0]nona-7,10-dien-5-one
@<TRIPOS>ATOM
      1 C1          0.5524   -3.0601   -0.3787 C.3       1 <0>        -0.1055
      2 C2          1.6216   -2.0681    0.0004 C.2       1 <0>        -0.0321
      3 C3          2.8946   -2.4581    0.2012 C.2       1 <0>        -0.2043
      4 S1          3.7324   -0.9380    0.6143 S.3       1 <0>         0.1296
      5 C4          2.4114    0.1442    0.5098 C.2       1 <0>         0.1317
      6 C5          1.3173   -0.6659    0.1606 C.2       1 <0>        -0.2785
      7 C6          0.0021   -0.0041    0.0020 C.2       1 <0>         0.6013
      8 O1         -1.0208   -0.6508   -0.1300 O.2       1 <0>        -0.5273
      9 N1         -0.0162    1.3455    0.0094 N.am      1 <0>        -0.7353
     10 C7          1.1870    2.1704    0.0024 C.3       1 <0>         0.4731
     11 H1          0.9748    3.1151    0.5031 H         1 <0>         0.1234
     12 N2          2.3024    1.4979    0.6932 N.pl3     1 <0>        -0.6877
     13 C8          1.5860    2.4485   -1.4240 C.2       1 <0>        -0.2542
     14 C9          0.7186    2.5433   -2.5174 C.2       1 <0>         0.1173
     15 N3          1.4292    2.7943   -3.5871 N.2       1 <0>        -0.2596
     16 N4          2.7769    2.8683   -3.2120 N.pl3     1 <0>        -0.3120
     17 C10         2.8472    2.6567   -1.8724 C.2       1 <0>         0.1545
     18 Cl1         4.2919    2.6503   -0.9097 Cl        1 <0>         0.0109
     19 C11         3.8593    3.1214   -4.0661 C.ar      1 <0>         0.1387
     20 C12         4.9426    3.8634   -3.6151 C.ar      1 <0>        -0.1253
     21 C13         6.0102    4.1061   -4.4571 C.ar      1 <0>        -0.0978
     22 C14         5.9956    3.6208   -5.7519 C.ar      1 <0>        -0.1132
     23 C15         4.9155    2.8863   -6.2058 C.ar      1 <0>        -0.1002
     24 C16         3.8476    2.6354   -5.3666 C.ar      1 <0>        -0.1026
     25 C17        -0.7792    2.3832   -2.4714 C.3       1 <0>        -0.0933
     26 C18         3.4731   -3.8460    0.1015 C.3       1 <0>        -0.0590
     27 H2          0.5003   -3.1410   -1.4645 H         1 <0>         0.0680
     28 H3          0.7931   -4.0342    0.0471 H         1 <0>         0.0647
     29 H4         -0.4096   -2.7226    0.0070 H         1 <0>         0.0865
     30 H5         -0.8774    1.7919    0.0159 H         1 <0>         0.4102
     31 H6          2.9274    1.9887    1.2495 H         1 <0>         0.4238
     32 H7          4.9526    4.2466   -2.6054 H         1 <0>         0.1312
     33 H8          6.8552    4.6795   -4.1054 H         1 <0>         0.1359
     34 H9          6.8294    3.8160   -6.4100 H         1 <0>         0.1329
     35 H10         4.9068    2.5088   -7.2176 H         1 <0>         0.1358
     36 H11         3.0041    2.0619   -5.7218 H         1 <0>         0.1347
     37 H12        -1.2429    3.3530   -2.2914 H         1 <0>         0.0867
     38 H13        -1.1312    1.9829   -3.4221 H         1 <0>         0.0811
     39 H14        -1.0467    1.6977   -1.6672 H         1 <0>         0.0941
     40 H15         4.5390   -3.8124    0.3266 H         1 <0>         0.0691
     41 H16         2.9717   -4.5007    0.8144 H         1 <0>         0.0767
     42 H17         3.3268   -4.2289   -0.9085 H         1 <0>         0.0762
@<TRIPOS>BOND
     1    1    2 1
     2    1   27 1
     3    1   28 1
     4    1   29 1
     5    2    6 1
     6    2    3 2
     7    3    4 1
     8    3   26 1
     9    4    5 1
    10    5   12 1
    11    5    6 2
    12    6    7 1
    13    7    8 2
    14    7    9 am
    15    9   10 1
    16    9   30 1
    17   10   11 1
    18   10   12 1
    19   10   13 1
    20   12   31 1
    21   13   17 2
    22   13   14 1
    23   14   15 2
    24   14   25 1
    25   15   16 1
    26   16   17 1
    27   16   19 1
    28   17   18 1
    29   19   24 ar
    30   19   20 ar
    31   20   21 ar
    32   20   32 1
    33   21   22 ar
    34   21   33 1
    35   22   23 ar
    36   22   34 1
    37   23   24 ar
    38   23   35 1
    39   24   36 1
    40   25   37 1
    41   25   38 1
    42   25   39 1
    43   26   40 1
    44   26   41 1
    45   26   42 1
@<TRIPOS>MOLECULE
ZINC20086103
   40    43     0     0     0
SMALL
USER_CHARGES
(4S)-2-amino-6-methyl-4-(5-methyl-2-furyl)-5-oxo-4H-pyrano[5,6-c]quinoline-3-carbonitrile
@<TRIPOS>ATOM
      1 C1         -3.3143    0.8676    5.0117 C.3       1 <0>        -0.0745
      2 C2         -3.0990    0.4382    3.5833 C.2       1 <0>        -0.0184
      3 C3         -3.0553   -0.8316    3.1417 C.2       1 <0>        -0.2103
      4 C4         -2.8345   -0.7727    1.7464 C.2       1 <0>        -0.1860
      5 C5         -2.7564    0.5296    1.4189 C.2       1 <0>        -0.0049
      6 O1         -2.9115    1.2583    2.5363 O.3       1 <0>        -0.1701
      7 C6         -2.5272    1.0779    0.0340 C.3       1 <0>         0.1532
      8 H1         -2.4388    0.2514   -0.6865 H         1 <0>         0.1230
      9 C7         -1.2535    1.8814    0.0183 C.2       1 <0>        -0.2451
     10 C8         -1.2939    3.2432    0.0292 C.2       1 <0>         0.2221
     11 C9         -0.0240    3.9834    0.0198 C.ar      1 <0>        -0.1223
     12 C10        -0.0017    5.3801    0.0245 C.ar      1 <0>        -0.0415
     13 C11         1.1961    6.0383    0.0177 C.ar      1 <0>        -0.1508
     14 C12         2.3900    5.3308    0.0060 C.ar      1 <0>        -0.0513
     15 C13         2.3904    3.9524    0.0002 C.ar      1 <0>        -0.1627
     16 C14         1.1827    3.2625    0.0068 C.ar      1 <0>         0.2071
     17 N1          1.1509    1.8833    0.0012 N.am      1 <0>        -0.5250
     18 C15        -0.0145    1.2154    0.0087 C.2       1 <0>         0.5572
     19 O2          0.0021   -0.0041    0.0020 O.2       1 <0>        -0.5168
     20 C16         2.4099    1.1342   -0.0127 C.3       1 <0>         0.0558
     21 O3         -2.4630    3.9134    0.0436 O.3       1 <0>        -0.2335
     22 C17        -3.5971    3.2953   -0.3311 C.2       1 <0>         0.4500
     23 C18        -3.6916    1.9442   -0.3575 C.2       1 <0>        -0.2857
     24 C19        -4.9203    1.3315   -0.7643 C.1       1 <0>         0.2759
     25 N2         -5.8951    0.8455   -1.0871 N.1       1 <0>        -0.4407
     26 N3         -4.6838    4.0507   -0.6948 N.pl3     1 <0>        -0.8499
     27 H2         -3.4383   -0.0217    5.6472 H         1 <0>         0.0899
     28 H3         -4.2176    1.4921    5.0746 H         1 <0>         0.0766
     29 H4         -2.4441    1.4457    5.3559 H         1 <0>         0.0762
     30 H5         -3.1672   -1.7248    3.7384 H         1 <0>         0.1461
     31 H6         -2.7461   -1.6122    1.0728 H         1 <0>         0.1467
     32 H7         -0.9268    5.9374    0.0331 H         1 <0>         0.1400
     33 H8          1.2137    7.1182    0.0219 H         1 <0>         0.1355
     34 H9          3.3283    5.8656    0.0012 H         1 <0>         0.1375
     35 H10         3.3245    3.4104   -0.0090 H         1 <0>         0.1421
     36 H11         2.1947    0.0555   -0.0155 H         1 <0>         0.1075
     37 H12         2.9978    1.3885    0.8816 H         1 <0>         0.0787
     38 H13         2.9825    1.3962   -0.9146 H         1 <0>         0.0796
     39 H14        -5.6176    3.5580   -1.0034 H         1 <0>         0.4534
     40 H15        -4.6209    5.1488   -0.6777 H         1 <0>         0.4355
@<TRIPOS>BOND
     1    1    2 1
     2    1   27 1
     3    1   28 1
     4    1   29 1
     5    2    6 1
     6    2    3 2
     7    3    4 1
     8    3   30 1
     9    4    5 2
    10    4   31 1
    11    5    6 1
    12    5    7 1
    13    7    8 1
    14    7   23 1
    15    7    9 1
    16    9   18 1
    17    9   10 2
    18   10   11 1
    19   10   21 1
    20   11   16 ar
    21   11   12 ar
    22   12   13 ar
    23   12   32 1
    24   13   14 ar
    25   13   33 1
    26   14   15 ar
    27   14   34 1
    28   15   16 ar
    29   15   35 1
    30   16   17 1
    31   17   18 am
    32   17   20 1
    33   18   19 2
    34   20   36 1
    35   20   37 1
    36   20   38 1
    37   21   22 1
    38   22   23 2
    39   22   26 1
    40   23   24 1
    41   24   25 3
    42   26   39 1
    43   26   40 1
@<TRIPOS>MOLECULE
ZINC01435777
   50    53     0     0     0
SMALL
USER_CHARGES

@<TRIPOS>ATOM
      1 C1          1.3382   -0.0725   -2.2123 C.3       1 <0>        -0.1415
      2 C2          0.8215   -1.3782   -1.6048 C.3       1 <0>        -0.0518
      3 C3         -0.6105   -1.1807   -1.1025 C.3       1 <0>        -0.0888
      4 C4         -1.1018   -2.4542   -0.4593 C.2       1 <0>         0.2338
      5 C5         -0.2468   -3.2942    0.1617 C.2       1 <0>        -0.2624
      6 C6         -0.7394   -4.5666    0.8035 C.3       1 <0>         0.1079
      7 H1         -0.2381   -4.7005    1.7621 H         1 <0>         0.0927
      8 C7         -2.2224   -4.5232    1.0259 C.2       1 <0>        -0.2480
      9 C8         -3.0051   -3.6298    0.3674 C.2       1 <0>         0.4836
     10 N1         -2.4412   -2.7378   -0.5167 N.pl3     1 <0>        -0.4913
     11 C9         -3.2421   -2.1154   -1.4813 C.ar      1 <0>         0.0960
     12 C10        -3.4159   -2.7046   -2.7270 C.ar      1 <0>        -0.0971
     13 C11        -4.2067   -2.0879   -3.6766 C.ar      1 <0>        -0.1056
     14 C12        -4.8252   -0.8852   -3.3882 C.ar      1 <0>        -0.0991
     15 C13        -4.6538   -0.2957   -2.1490 C.ar      1 <0>        -0.1080
     16 C14        -3.8693   -0.9103   -1.1929 C.ar      1 <0>        -0.1122
     17 N2         -4.3624   -3.6168    0.5832 N.pl3     1 <0>        -0.8496
     18 C15        -2.8228   -5.4391    1.9485 C.1       1 <0>         0.2725
     19 N3         -3.2992   -6.1657    2.6804 N.1       1 <0>        -0.4485
     20 C16        -0.4094   -5.7320   -0.0932 C.ar      1 <0>        -0.1166
     21 C17         0.3987   -6.7623    0.3632 C.ar      1 <0>        -0.0603
     22 C18         0.6756   -7.8140   -0.4965 C.ar      1 <0>        -0.1698
     23 C19         0.1408   -7.8007   -1.7711 C.ar      1 <0>         0.0899
     24 N4         -0.6236   -6.8037   -2.1714 N.ar      1 <0>        -0.4853
     25 C20        -0.9130   -5.7901   -1.3787 C.ar      1 <0>         0.1085
     26 C21         1.1290   -3.0114    0.2250 C.2       1 <0>         0.4065
     27 O1          1.8693   -3.7790    0.8076 O.2       1 <0>        -0.4631
     28 C22         1.7018   -1.7767   -0.4154 C.3       1 <0>        -0.1599
     29 C23         0.8527   -2.4846   -2.6611 C.3       1 <0>        -0.1521
     30 H2          2.3645   -0.2111   -2.5522 H         1 <0>         0.0650
     31 H3          0.7102    0.2082   -3.0578 H         1 <0>         0.0615
     32 H4          1.3079    0.7154   -1.4597 H         1 <0>         0.0607
     33 H5         -0.6302   -0.3733   -0.3705 H         1 <0>         0.1022
     34 H6         -1.2574   -0.9250   -1.9418 H         1 <0>         0.0945
     35 H7         -2.9328   -3.6437   -2.9529 H         1 <0>         0.1321
     36 H8         -4.3419   -2.5454   -4.6455 H         1 <0>         0.1348
     37 H9         -5.4431   -0.4050   -4.1325 H         1 <0>         0.1320
     38 H10        -5.1379    0.6438   -1.9271 H         1 <0>         0.1339
     39 H11        -3.7400   -0.4520   -0.2235 H         1 <0>         0.1316
     40 H12        -4.7721   -4.3002    1.1363 H         1 <0>         0.4197
     41 H13        -4.9106   -2.9242    0.1823 H         1 <0>         0.4054
     42 H14         0.8030   -6.7457    1.3645 H         1 <0>         0.1331
     43 H15         1.3016   -8.6331   -0.1746 H         1 <0>         0.1337
     44 H16         0.3518   -8.6163   -2.4469 H         1 <0>         0.1533
     45 H17        -1.5470   -4.9941   -1.7401 H         1 <0>         0.1395
     46 H18         2.7140   -1.9824   -0.7635 H         1 <0>         0.0990
     47 H19         1.7223   -0.9647    0.3115 H         1 <0>         0.1024
     48 H20         1.8761   -2.6271   -3.0080 H         1 <0>         0.0632
     49 H21         0.4842   -3.4134   -2.2254 H         1 <0>         0.0608
     50 H22         0.2199   -2.2017   -3.5023 H         1 <0>         0.0611
@<TRIPOS>BOND
     1    1    2 1
     2    1   30 1
     3    1   31 1
     4    1   32 1
     5    2   28 1
     6    2    3 1
     7    2   29 1
     8    3    4 1
     9    3   33 1
    10    3   34 1
    11    4   10 1
    12    4    5 2
    13    5    6 1
    14    5   26 1
    15    6    7 1
    16    6    8 1
    17    6   20 1
    18    8    9 2
    19    8   18 1
    20    9   10 1
    21    9   17 1
    22   10   11 1
    23   11   16 ar
    24   11   12 ar
    25   12   13 ar
    26   12   35 1
    27   13   14 ar
    28   13   36 1
    29   14   15 ar
    30   14   37 1
    31   15   16 ar
    32   15   38 1
    33   16   39 1
    34   17   40 1
    35   17   41 1
    36   18   19 3
    37   20   25 ar
    38   20   21 ar
    39   21   22 ar
    40   21   42 1
    41   22   23 ar
    42   22   43 1
    43   23   24 ar
    44   23   44 1
    45   24   25 ar
    46   25   45 1
    47   26   27 2
    48   26   28 1
    49   28   46 1
    50   28   47 1
    51   29   48 1
    52   29   49 1
    53   29   50 1
@<TRIPOS>MOLECULE
ZINC48473400
   34    35     0     0     0
SMALL
USER_CHARGES

@<TRIPOS>ATOM
      1 C1         -0.0721    1.5017    0.0160 C.3       1 <0>        -0.1139
      2 C2         -0.0371   -0.0048    0.0062 C.ar      1 <0>        -0.0990
      3 C3         -0.6273   -0.7019   -1.0322 C.ar      1 <0>        -0.0813
      4 C4         -0.5968   -2.0827   -1.0447 C.ar      1 <0>        -0.1215
      5 C5          0.0273   -2.7714   -0.0131 C.ar      1 <0>         0.1898
      6 C6          0.6194   -2.0686    1.0288 C.ar      1 <0>        -0.1242
      7 C7          0.5899   -0.6868    1.0325 C.ar      1 <0>        -0.0695
      8 Br1         1.4709   -3.0012    2.4364 Br        1 <0>        -0.0460
      9 N1          0.0595   -4.1709   -0.0227 N.am      1 <0>        -0.6795
     10 C8         -0.0390   -4.8392   -1.1889 C.2       1 <0>         0.7079
     11 O1         -0.0528   -4.2286   -2.2403 O.2       1 <0>        -0.5625
     12 N2         -0.1223   -6.1844   -1.1898 N.am      1 <0>        -0.7294
     13 C9         -0.2294   -6.9109   -2.4574 C.3       1 <0>         0.1654
     14 H1         -0.8087   -6.3187   -3.1659 H         1 <0>         0.1166
     15 C10         1.1781   -7.1546   -3.0267 C.3       1 <0>        -0.1479
     16 C11         1.0598   -8.1835   -4.1871 C.3       1 <0>        -0.5688
     17 S1         -0.1647   -9.3596   -3.4713 S.o2      1 <0>         2.3790
     18 O2          0.5319  -10.4037   -2.8051 O.2       1 <0>        -0.9288
     19 O3         -1.1287   -9.6842   -4.4636 O.2       1 <0>        -0.9297
     20 C12        -0.9410   -8.2639   -2.2158 C.3       1 <0>        -0.6010
     21 H2          0.8032    1.8889   -0.5057 H         1 <0>         0.0734
     22 H3         -0.9761    1.8474   -0.4853 H         1 <0>         0.0701
     23 H4         -0.0685    1.8586    1.0459 H         1 <0>         0.0687
     24 H5         -1.1129   -0.1660   -1.8342 H         1 <0>         0.1337
     25 H6         -1.0583   -2.6262   -1.8559 H         1 <0>         0.1569
     26 H7          1.0534   -0.1395    1.8399 H         1 <0>         0.1369
     27 H8          0.1527   -4.6596    0.8100 H         1 <0>         0.4107
     28 H9         -0.1113   -6.6715   -0.3510 H         1 <0>         0.4043
     29 H10         1.5893   -6.2187   -3.4050 H         1 <0>         0.1092
     30 H11         1.8269   -7.5526   -2.2464 H         1 <0>         0.0927
     31 H12         0.6734   -7.7145   -5.0920 H         1 <0>         0.1441
     32 H13         2.0140   -8.6750   -4.3769 H         1 <0>         0.1463
     33 H14        -0.7437   -8.6298   -1.2082 H         1 <0>         0.1463
     34 H15        -2.0129   -8.1738   -2.3924 H         1 <0>         0.1511
@<TRIPOS>BOND
     1    1    2 1
     2    1   21 1
     3    1   22 1
     4    1   23 1
     5    2    7 ar
     6    2    3 ar
     7    3    4 ar
     8    3   24 1
     9    4    5 ar
    10    4   25 1
    11    5    6 ar
    12    5    9 1
    13    6    7 ar
    14    6    8 1
    15    7   26 1
    16    9   10 am
    17    9   27 1
    18   10   11 2
    19   10   12 am
    20   12   13 1
    21   12   28 1
    22   13   14 1
    23   13   20 1
    24   13   15 1
    25   15   16 1
    26   15   29 1
    27   15   30 1
    28   16   17 1
    29   16   31 1
    30   16   32 1
    31   17   18 2
    32   17   19 2
    33   17   20 1
    34   20   33 1
    35   20   34 1
@<TRIPOS>MOLECULE
ZINC00759062
   37    40     0     0     0
SMALL
USER_CHARGES

@<TRIPOS>ATOM
      1 C1         -0.2065    1.3926   -0.0393 C.ar      1 <0>        -0.0887
      2 C2          0.9618    2.1287   -0.1085 C.ar      1 <0>        -0.1203
      3 C3          2.1813    1.4831   -0.2113 C.ar      1 <0>         0.0677
      4 C4          2.2300    0.0974   -0.2448 C.ar      1 <0>         0.0692
      5 C5          1.0590   -0.6364   -0.1754 C.ar      1 <0>        -0.1078
      6 C6         -0.1579    0.0117   -0.0727 C.ar      1 <0>        -0.0566
      7 C7         -1.4328   -0.7884    0.0029 C.3       1 <0>         0.1224
      8 H1         -2.2804   -0.1172    0.1410 H         1 <0>         0.1051
      9 C8         -1.3579   -1.7565    1.1551 C.2       1 <0>        -0.2507
     10 C9         -1.4239   -1.5036    2.5288 C.2       1 <0>         0.1552
     11 N1         -1.3130   -2.6575    3.1598 N.2       1 <0>        -0.2376
     12 N2         -1.1738   -3.6735    2.2016 N.pl3     1 <0>        -0.4396
     13 H2         -1.0736   -4.6207    2.3852 H         1 <0>         0.4517
     14 C10        -1.2046   -3.1011    0.9800 C.2       1 <0>         0.2817
     15 O1         -1.1102   -3.6738   -0.2461 O.3       1 <0>        -0.2275
     16 C11        -1.4444   -2.9217   -1.3143 C.2       1 <0>         0.4434
     17 C12        -1.6126   -1.5806   -1.2680 C.2       1 <0>        -0.2617
     18 C13        -1.9736   -0.8873   -2.4679 C.1       1 <0>         0.2675
     19 N3         -2.2599   -0.3373   -3.4197 N.1       1 <0>        -0.4297
     20 N4         -1.6249   -3.5542   -2.5192 N.pl3     1 <0>        -0.8273
     21 C14        -1.5899   -0.1734    3.1646 C.ar      1 <0>         0.0271
     22 C15        -2.4904    0.7621    2.6475 C.ar      1 <0>        -0.1490
     23 C16        -2.6140    1.9872    3.2699 C.ar      1 <0>         0.1038
     24 N5         -1.8963    2.2798    4.3375 N.ar      1 <0>        -0.4764
     25 C17        -1.0355    1.4255    4.8570 C.ar      1 <0>         0.1043
     26 C18        -0.8541    0.1762    4.3005 C.ar      1 <0>        -0.1419
     27 F1          3.4195   -0.5351   -0.3456 F         1 <0>        -0.1283
     28 F2          3.3232    2.2017   -0.2795 F         1 <0>        -0.1277
     29 H3         -1.1577    1.8970    0.0454 H         1 <0>         0.1412
     30 H4          0.9225    3.2077   -0.0827 H         1 <0>         0.1482
     31 H5          1.0956   -1.7155   -0.2017 H         1 <0>         0.1362
     32 H6         -1.5116   -4.5153   -2.5843 H         1 <0>         0.4133
     33 H7         -1.8657   -3.0399   -3.3057 H         1 <0>         0.4296
     34 H8         -3.0806    0.5295    1.7734 H         1 <0>         0.1408
     35 H9         -3.3072    2.7165    2.8776 H         1 <0>         0.1619
     36 H10        -0.4680    1.7065    5.7319 H         1 <0>         0.1608
     37 H11        -0.1509   -0.5198    4.7334 H         1 <0>         0.1397
@<TRIPOS>BOND
     1    1    6 ar
     2    1    2 ar
     3    1   29 1
     4    2    3 ar
     5    2   30 1
     6    3    4 ar
     7    3   28 1
     8    4    5 ar
     9    4   27 1
    10    5    6 ar
    11    5   31 1
    12    6    7 1
    13    7    8 1
    14    7   17 1
    15    7    9 1
    16    9   14 2
    17    9   10 1
    18   10   11 2
    19   10   21 1
    20   11   12 1
    21   12   13 1
    22   12   14 1
    23   14   15 1
    24   15   16 1
    25   16   17 2
    26   16   20 1
    27   17   18 1
    28   18   19 3
    29   20   32 1
    30   20   33 1
    31   21   26 ar
    32   21   22 ar
    33   22   23 ar
    34   22   34 1
    35   23   24 ar
    36   23   35 1
    37   24   25 ar
    38   25   26 ar
    39   25   36 1
    40   26   37 1
@<TRIPOS>MOLECULE
ZINC04200898
   68    71     0     0     0
SMALL
USER_CHARGES
N-(1-carbamoyl-2-phenyl-ethyl)-4-[(3-methylsulfanylphenyl)carbamoylamino]-1-pyrazin-2-ylcarbonyl-pyrrolidine-2-carboxamide
@<TRIPOS>ATOM
      1 C1          8.4334    4.6490  -12.1957 C.3       1 <0>        -0.1465
      2 S1          7.5194    3.3511  -11.3178 S.3       1 <0>        -0.1100
      3 C2          6.7737    4.1965   -9.9636 C.ar      1 <0>        -0.0658
      4 C3          6.9766    5.5622   -9.7986 C.ar      1 <0>        -0.1507
      5 C4          6.3919    6.2252   -8.7375 C.ar      1 <0>        -0.0798
      6 C5          5.5989    5.5354   -7.8400 C.ar      1 <0>        -0.1519
      7 C6          5.3966    4.1699   -7.9958 C.ar      1 <0>         0.1810
      8 C7          5.9822    3.5001   -9.0603 C.ar      1 <0>        -0.0993
      9 N1          4.5982    3.4715   -7.0829 N.am      1 <0>        -0.6844
     10 C8          4.9053    2.2014   -6.7528 C.2       1 <0>         0.7065
     11 O1          5.8252    1.6340   -7.3098 O.2       1 <0>        -0.5612
     12 N2          4.1928    1.5603   -5.8054 N.am      1 <0>        -0.7284
     13 C9          4.5266    0.1797   -5.4466 C.3       1 <0>         0.1530
     14 H1          5.6054    0.0242   -5.4595 H         1 <0>         0.1129
     15 C10         3.9270   -0.1967   -4.0659 C.3       1 <0>        -0.1276
     16 C11         3.7634   -1.7279   -4.1659 C.3       1 <0>         0.1259
     17 H2          4.6122   -2.2252   -3.6965 H         1 <0>         0.1080
     18 N3          3.7119   -2.0690   -5.5951 N.am      1 <0>        -0.5818
     19 C12         3.8095   -0.8259   -6.3816 C.3       1 <0>         0.0933
     20 C13         3.5956   -3.3123   -6.1022 C.2       1 <0>         0.5966
     21 O2          3.5233   -4.2686   -5.3560 O.2       1 <0>        -0.5031
     22 C14         3.5557   -3.5130   -7.5695 C.ar      1 <0>         0.0339
     23 C15         3.4412   -4.7989   -8.0965 C.ar      1 <0>         0.1134
     24 N4          3.4017   -4.9724   -9.4053 N.ar      1 <0>        -0.4371
     25 C16         3.4805   -3.9304  -10.2140 C.ar      1 <0>         0.0757
     26 C17         3.5993   -2.6502   -9.6929 C.ar      1 <0>         0.0496
     27 N5          3.6347   -2.4677   -8.3881 N.ar      1 <0>        -0.4065
     28 C18         2.4842   -2.1518   -3.4914 C.2       1 <0>         0.5228
     29 O3          1.4926   -2.3706   -4.1546 O.2       1 <0>        -0.5185
     30 N6          2.4421   -2.2878   -2.1512 N.am      1 <0>        -0.7030
     31 C19         1.1985   -2.6998   -1.4955 C.3       1 <0>         0.1376
     32 H3          0.3483   -2.2757   -2.0296 H         1 <0>         0.1164
     33 C20         1.1939   -2.1989   -0.0498 C.3       1 <0>        -0.0849
     34 C21         1.1693   -0.6921   -0.0403 C.ar      1 <0>        -0.0844
     35 C22        -0.0390   -0.0207   -0.0330 C.ar      1 <0>        -0.1132
     36 C23        -0.0616    1.3615   -0.0248 C.ar      1 <0>        -0.1156
     37 C24         1.1241    2.0721   -0.0234 C.ar      1 <0>        -0.1195
     38 C25         2.3324    1.4007   -0.0308 C.ar      1 <0>        -0.1163
     39 C26         2.3550    0.0185   -0.0395 C.ar      1 <0>        -0.1117
     40 C27         1.0992   -4.2035   -1.5064 C.2       1 <0>         0.5006
     41 O4          1.9805   -4.8658   -2.0121 O.2       1 <0>        -0.5151
     42 N7          0.0311   -4.8124   -0.9542 N.am      1 <0>        -0.8552
     43 H4          9.1742    5.0874  -11.5271 H         1 <0>         0.0843
     44 H5          8.9356    4.2174  -13.0615 H         1 <0>         0.1098
     45 H6          7.7395    5.4220  -12.5261 H         1 <0>         0.0842
     46 H7          7.5918    6.1049  -10.5009 H         1 <0>         0.1239
     47 H8          6.5509    7.2859   -8.6114 H         1 <0>         0.1302
     48 H9          5.1395    6.0578   -7.0140 H         1 <0>         0.1278
     49 H10         5.8225    2.4394   -9.1861 H         1 <0>         0.1481
     50 H11         3.8238    3.9016   -6.6877 H         1 <0>         0.4088
     51 H12         3.4590    2.0130   -5.3610 H         1 <0>         0.4010
     52 H13         2.9605    0.2858   -3.9208 H         1 <0>         0.0909
     53 H14         4.6149    0.0660   -3.2622 H         1 <0>         0.1040
     54 H15         4.3991   -0.9926   -7.2830 H         1 <0>         0.1179
     55 H16         2.8152   -0.4613   -6.6397 H         1 <0>         0.0737
     56 H17         3.3813   -5.6511   -7.4357 H         1 <0>         0.1828
     57 H18         3.4519   -4.0758  -11.2838 H         1 <0>         0.1783
     58 H19         3.6634   -1.8015  -10.3578 H         1 <0>         0.1791
     59 H20         3.2351   -2.1128   -1.6208 H         1 <0>         0.4033
     60 H21         2.0911   -2.5508    0.4595 H         1 <0>         0.0882
     61 H22         0.3114   -2.5799    0.4640 H         1 <0>         0.0952
     62 H23        -0.9653   -0.5759   -0.0340 H         1 <0>         0.1224
     63 H24        -1.0056    1.8861   -0.0239 H         1 <0>         0.1227
     64 H25         1.1065    3.1520   -0.0173 H         1 <0>         0.1216
     65 H26         3.2588    1.9559   -0.0298 H         1 <0>         0.1229
     66 H27         3.2990   -0.5061   -0.0453 H         1 <0>         0.1200
     67 H28        -0.6737   -4.2827   -0.5497 H         1 <0>         0.3996
     68 H29        -0.0328   -5.7803   -0.9612 H         1 <0>         0.4041
@<TRIPOS>BOND
     1    1    2 1
     2    1   43 1
     3    1   44 1
     4    1   45 1
     5    2    3 1
     6    3    8 ar
     7    3    4 ar
     8    4    5 ar
     9    4   46 1
    10    5    6 ar
    11    5   47 1
    12    6    7 ar
    13    6   48 1
    14    7    8 ar
    15    7    9 1
    16    8   49 1
    17    9   10 am
    18    9   50 1
    19   10   11 2
    20   10   12 am
    21   12   13 1
    22   12   51 1
    23   13   14 1
    24   13   19 1
    25   13   15 1
    26   15   16 1
    27   15   52 1
    28   15   53 1
    29   16   17 1
    30   16   18 1
    31   16   28 1
    32   18   19 1
    33   18   20 am
    34   19   54 1
    35   19   55 1
    36   20   21 2
    37   20   22 1
    38   22   27 ar
    39   22   23 ar
    40   23   24 ar
    41   23   56 1
    42   24   25 ar
    43   25   26 ar
    44   25   57 1
    45   26   27 ar
    46   26   58 1
    47   28   29 2
    48   28   30 am
    49   30   31 1
    50   30   59 1
    51   31   32 1
    52   31   33 1
    53   31   40 1
    54   33   34 1
    55   33   60 1
    56   33   61 1
    57   34   39 ar
    58   34   35 ar
    59   35   36 ar
    60   35   62 1
    61   36   37 ar
    62   36   63 1
    63   37   38 ar
    64   37   64 1
    65   38   39 ar
    66   38   65 1
    67   39   66 1
    68   40   41 2
    69   40   42 am
    70   42   67 1
    71   42   68 1
@<TRIPOS>MOLECULE
ZINC08791829
   80    83     0     0     0
SMALL
USER_CHARGES
[2-(11,17-dihydroxy-10,13-dimethyl-3-oxo-2,6,7,8,9,11,12,14,15,16-decahydro-1H-cyclopenta[a]phenanthren-17-yl)-2-oxo-ethyl] 4-oxo-4-sec-butylamino-butanoate
@<TRIPOS>ATOM
      1 C1         -0.2358  -11.1481   11.9946 C.3       1 <0>        -0.1541
      2 C2          0.5650  -10.2162   12.9062 C.3       1 <0>        -0.1326
      3 C3          0.4164   -8.7738   12.4182 C.3       1 <0>         0.1389
      4 H1         -0.6414   -8.5182   12.3567 H         1 <0>         0.0897
      5 C4          1.1132   -7.8291   13.3994 C.3       1 <0>        -0.1653
      6 N1          1.0288   -8.6408   11.0939 N.am      1 <0>        -0.7240
      7 C5          0.6144   -7.6715   10.2542 C.2       1 <0>         0.5158
      8 O1         -0.2653   -6.9093   10.5948 O.2       1 <0>        -0.5374
      9 C6          1.2443   -7.5347    8.8920 C.3       1 <0>        -0.1315
     10 C7          0.5973   -6.3660    8.1460 C.3       1 <0>        -0.0976
     11 C8          1.2272   -6.2293    6.7838 C.2       1 <0>         0.4651
     12 O2          2.1036   -6.9886    6.4444 O.2       1 <0>        -0.5073
     13 O3          0.8146   -5.2639    5.9474 O.3       1 <0>        -0.3365
     14 C9          1.4659   -5.1914    4.6517 C.3       1 <0>         0.0209
     15 C10         0.8763   -4.0556    3.8559 C.2       1 <0>         0.3319
     16 O4         -0.0022   -3.3772    4.3317 O.2       1 <0>        -0.3982
     17 C11         1.3816   -3.7672    2.4705 C.3       1 <0>         0.0966
     18 C12         0.4160   -4.3400    1.4038 C.3       1 <0>        -0.1414
     19 C13         0.2240   -3.2244    0.3410 C.3       1 <0>        -0.1132
     20 C14         1.3491   -2.2289    0.6639 C.3       1 <0>        -0.0743
     21 H2          2.2990   -2.6642    0.2942 H         1 <0>         0.0831
     22 C15         1.3634   -2.2467    2.2055 C.3       1 <0>        -0.0232
     23 C16         2.5598   -1.5045    2.7405 C.3       1 <0>        -0.1430
     24 C17         2.9006   -0.2909    1.8633 C.3       1 <0>         0.1223
     25 H3          3.6900   -0.5772    1.1589 H         1 <0>         0.0570
     26 C18         1.6914    0.2138    1.0914 C.3       1 <0>        -0.0623
     27 H4          0.8873    0.4700    1.7812 H         1 <0>         0.0896
     28 C19         1.2038   -0.8463    0.1023 C.3       1 <0>        -0.0700
     29 H5          1.8706   -0.7789   -0.7818 H         1 <0>         0.0691
     30 C20        -0.1993   -0.5303   -0.3930 C.3       1 <0>        -0.1074
     31 C21        -0.3239    0.9650   -0.6934 C.3       1 <0>        -0.0985
     32 C22         1.0550    1.5588   -0.8635 C.2       1 <0>        -0.0164
     33 C23         1.3928    2.1403   -2.0087 C.2       1 <0>        -0.2436
     34 C24         2.7164    2.7250   -2.2040 C.2       1 <0>         0.3869
     35 O5          2.9763    3.3012   -3.2410 O.2       1 <0>        -0.4662
     36 C25         3.7594    2.6207   -1.1222 C.3       1 <0>        -0.1589
     37 C26         3.4552    1.4173   -0.2275 C.3       1 <0>        -0.1080
     38 C27         2.0257    1.4844    0.2934 C.3       1 <0>        -0.0227
     39 C28         1.8331    2.7140    1.1839 C.3       1 <0>        -0.1395
     40 O6          3.4103    0.7433    2.7148 O.3       1 <0>        -0.5625
     41 C29         0.0679   -1.6991    2.8092 C.3       1 <0>        -0.1394
     42 O7          2.6948   -4.2868    2.2849 O.3       1 <0>        -0.5346
     43 H6          0.1397  -11.0693   10.9744 H         1 <0>         0.0544
     44 H7         -0.1300  -12.1758   12.3423 H         1 <0>         0.0577
     45 H8         -1.2877  -10.8633   12.0176 H         1 <0>         0.0560
     46 H9          1.6169  -10.5011   12.8832 H         1 <0>         0.0685
     47 H10         0.1895  -10.2951   13.9265 H         1 <0>         0.0799
     48 H11         0.6577   -7.9280   14.3847 H         1 <0>         0.0670
     49 H12         2.1710   -8.0847   13.4609 H         1 <0>         0.0571
     50 H13         1.0074   -6.8015   13.0517 H         1 <0>         0.0612
     51 H14         1.7324   -9.2504   10.8215 H         1 <0>         0.4014
     52 H15         1.0926   -8.4547    8.3275 H         1 <0>         0.1046
     53 H16         2.3125   -7.3484    9.0027 H         1 <0>         0.1049
     54 H17         0.7491   -5.4460    8.7105 H         1 <0>         0.1175
     55 H18        -0.4709   -6.5524    8.0353 H         1 <0>         0.1173
     56 H19         1.3262   -6.0508    4.1599 H         1 <0>         0.0915
     57 H20         2.5336   -5.0218    4.7908 H         1 <0>         0.1091
     58 H21         0.8517   -5.2254    0.9419 H         1 <0>         0.0843
     59 H22        -0.5409   -4.5894    1.8617 H         1 <0>         0.0763
     60 H23        -0.7573   -2.7651    0.4314 H         1 <0>         0.0789
     61 H24         0.3577   -3.6333   -0.6635 H         1 <0>         0.0726
     62 H25         2.3527   -1.1588    3.7628 H         1 <0>         0.0729
     63 H26         3.4312   -2.1687    2.7858 H         1 <0>         0.0804
     64 H27        -0.9316   -0.8000    0.3626 H         1 <0>         0.0745
     65 H28        -0.3946   -1.0915   -1.3064 H         1 <0>         0.0717
     66 H29        -0.8926    1.0994   -1.6136 H         1 <0>         0.0781
     67 H30        -0.8372    1.4573    0.1300 H         1 <0>         0.0845
     68 H31         0.6691    2.1885   -2.8107 H         1 <0>         0.1296
     69 H32         3.7561    3.4572   -0.5743 H         1 <0>         0.0935
     70 H33         4.7416    2.4800   -1.5876 H         1 <0>         0.0949
     71 H34         4.1573    1.4124    0.6103 H         1 <0>         0.0893
     72 H35         3.5930    0.4970   -0.8027 H         1 <0>         0.0664
     73 H36         2.4941    2.6440    2.0479 H         1 <0>         0.0854
     74 H37         2.0705    3.6141    0.6168 H         1 <0>         0.0525
     75 H38         0.7977    2.7596    1.5214 H         1 <0>         0.0553
     76 H39         4.2076    0.4943    3.2020 H         1 <0>         0.3772
     77 H40        -0.7344   -2.4228    2.6652 H         1 <0>         0.0650
     78 H41         0.2102   -1.5218    3.8752 H         1 <0>         0.0720
     79 H42        -0.1949   -0.7627    2.3170 H         1 <0>         0.0592
     80 H43         2.7663   -5.2389    2.4381 H         1 <0>         0.3800
@<TRIPOS>BOND
     1    1    2 1
     2    1   43 1
     3    1   44 1
     4    1   45 1
     5    2    3 1
     6    2   46 1
     7    2   47 1
     8    3    4 1
     9    3    5 1
    10    3    6 1
    11    5   48 1
    12    5   49 1
    13    5   50 1
    14    6    7 am
    15    6   51 1
    16    7    8 2
    17    7    9 1
    18    9   10 1
    19    9   52 1
    20    9   53 1
    21   10   11 1
    22   10   54 1
    23   10   55 1
    24   11   12 2
    25   11   13 1
    26   13   14 1
    27   14   15 1
    28   14   56 1
    29   14   57 1
    30   15   16 2
    31   15   17 1
    32   17   22 1
    33   17   18 1
    34   17   42 1
    35   18   19 1
    36   18   58 1
    37   18   59 1
    38   19   20 1
    39   19   60 1
    40   19   61 1
    41   20   21 1
    42   20   28 1
    43   20   22 1
    44   22   23 1
    45   22   41 1
    46   23   24 1
    47   23   62 1
    48   23   63 1
    49   24   25 1
    50   24   26 1
    51   24   40 1
    52   26   27 1
    53   26   38 1
    54   26   28 1
    55   28   29 1
    56   28   30 1
    57   30   31 1
    58   30   64 1
    59   30   65 1
    60   31   32 1
    61   31   66 1
    62   31   67 1
    63   32   38 1
    64   32   33 2
    65   33   34 1
    66   33   68 1
    67   34   35 2
    68   34   36 1
    69   36   37 1
    70   36   69 1
    71   36   70 1
    72   37   38 1
    73   37   71 1
    74   37   72 1
    75   38   39 1
    76   39   73 1
    77   39   74 1
    78   39   75 1
    79   40   76 1
    80   41   77 1
    81   41   78 1
    82   41   79 1
    83   42   80 1
@<TRIPOS>MOLECULE
ZINC12580190
   56    59     0     0     0
SMALL
USER_CHARGES
ethyl 4-[[2-[(2Z,5S)-3-(2-furylmethyl)-4-oxo-2-[(4-oxothiazol-2-yl)hydrazono]thiazolidin-5-yl]acetyl]amino]benzoate
@<TRIPOS>ATOM
      1 C1         -0.8010    6.2447    1.5790 C.3       1 <0>        -0.1536
      2 C2          0.3005    5.6736    0.6837 C.3       1 <0>         0.0629
      3 O1          0.2573    4.2230    0.7287 O.3       1 <0>        -0.3550
      4 C3          1.1685    3.5606   -0.0107 C.2       1 <0>         0.5104
      5 O2          1.9771    4.1783   -0.6748 O.2       1 <0>        -0.5054
      6 C4          1.1844    2.0861   -0.0138 C.ar      1 <0>        -0.1426
      7 C5          2.1291    1.3972   -0.7804 C.ar      1 <0>        -0.0310
      8 C6          2.1413    0.0208   -0.7806 C.ar      1 <0>        -0.1332
      9 C7          1.2149   -0.6850   -0.0191 C.ar      1 <0>         0.1819
     10 C8          0.2732   -0.0027    0.7451 C.ar      1 <0>        -0.1577
     11 C9          0.2551    1.3737    0.7500 C.ar      1 <0>        -0.0383
     12 N1          1.2305   -2.0790   -0.0213 N.am      1 <0>        -0.6689
     13 C10         2.3995   -2.7397   -0.1378 C.2       1 <0>         0.5196
     14 O3          3.4451   -2.1254   -0.1442 O.2       1 <0>        -0.5016
     15 C11         2.4072   -4.2417   -0.2599 C.3       1 <0>        -0.1230
     16 C12         3.8502   -4.7364   -0.3777 C.3       1 <0>        -0.0547
     17 H1          4.4737   -4.3173    0.4121 H         1 <0>         0.1718
     18 C13         3.9126   -6.2547   -0.3801 C.2       1 <0>         0.5311
     19 O4          3.5355   -6.9156    0.5644 O.2       1 <0>        -0.4537
     20 N2          4.4024   -6.8113   -1.4746 N.am      1 <0>        -0.5305
     21 C14         4.8341   -6.0562   -2.5559 C.2       1 <0>         0.3414
     22 N3          5.3330   -6.4768   -3.6826 N.2       1 <0>        -0.2117
     23 N4          5.7162   -5.5558   -4.6663 N.pl3     1 <0>        -0.4742
     24 C15         6.2370   -5.9947   -5.8422 C.2       1 <0>         0.5407
     25 N5          6.4582   -7.2479   -6.2254 N.2       1 <0>        -0.6485
     26 C16         6.9595   -7.5855   -7.3804 C.2       1 <0>         0.5308
     27 O5          7.1412   -8.7457   -7.6959 O.2       1 <0>        -0.4544
     28 C17         7.3079   -6.4259   -8.3053 C.3       1 <0>        -0.1517
     29 S1          6.7933   -5.0224   -7.2354 S.3       1 <0>        -0.1387
     30 S2          4.5445   -4.3713   -2.0380 S.3       1 <0>        -0.1014
     31 C18         4.4927   -8.2717   -1.5481 C.3       1 <0>         0.1818
     32 C19         3.2179   -8.8252   -2.1309 C.2       1 <0>        -0.0561
     33 C20         2.9773   -9.0373   -3.4372 C.2       1 <0>        -0.1649
     34 C21         1.6673   -9.5607   -3.5326 C.2       1 <0>        -0.2187
     35 C22         1.1859   -9.6371   -2.2789 C.2       1 <0>        -0.0249
     36 O6          2.1315   -9.1956   -1.4336 O.3       1 <0>        -0.1666
     37 H2         -1.7723    5.8990    1.2253 H         1 <0>         0.0674
     38 H3         -0.6468    5.9082    2.6042 H         1 <0>         0.0675
     39 H4         -0.7686    7.3337    1.5453 H         1 <0>         0.0819
     40 H5          1.2718    6.0193    1.0374 H         1 <0>         0.0719
     41 H6          0.1463    6.0101   -0.3415 H         1 <0>         0.0719
     42 H7          2.8513    1.9443   -1.3682 H         1 <0>         0.1430
     43 H8          2.8710   -0.5121   -1.3722 H         1 <0>         0.1450
     44 H9         -0.4446   -0.5536    1.3346 H         1 <0>         0.1376
     45 H10        -0.4758    1.9026    1.3436 H         1 <0>         0.1444
     46 H11         0.4001   -2.5735    0.0609 H         1 <0>         0.4180
     47 H12         1.9436   -4.6805    0.6236 H         1 <0>         0.1343
     48 H13         1.8483   -4.5369   -1.1480 H         1 <0>         0.1201
     49 H14         5.6098   -4.6047   -4.5079 H         1 <0>         0.4219
     50 H15         6.7232   -6.4607   -9.2245 H         1 <0>         0.1501
     51 H16         8.3765   -6.3934   -8.5175 H         1 <0>         0.1505
     52 H17         5.3338   -8.5522   -2.1821 H         1 <0>         0.1329
     53 H18         4.6409   -8.6774   -0.5473 H         1 <0>         0.1189
     54 H19         3.6545   -8.8443   -4.2560 H         1 <0>         0.1551
     55 H20         1.1523   -9.8450   -4.4383 H         1 <0>         0.1510
     56 H21         0.2069   -9.9972   -1.9992 H         1 <0>         0.2056
@<TRIPOS>BOND
     1    1    2 1
     2    1   37 1
     3    1   38 1
     4    1   39 1
     5    2    3 1
     6    2   40 1
     7    2   41 1
     8    3    4 1
     9    4    5 2
    10    4    6 1
    11    6   11 ar
    12    6    7 ar
    13    7    8 ar
    14    7   42 1
    15    8    9 ar
    16    8   43 1
    17    9   10 ar
    18    9   12 1
    19   10   11 ar
    20   10   44 1
    21   11   45 1
    22   12   13 am
    23   12   46 1
    24   13   14 2
    25   13   15 1
    26   15   16 1
    27   15   47 1
    28   15   48 1
    29   16   17 1
    30   16   30 1
    31   16   18 1
    32   18   19 2
    33   18   20 am
    34   20   21 1
    35   20   31 1
    36   21   22 2
    37   21   30 1
    38   22   23 1
    39   23   24 1
    40   23   49 1
    41   24   29 1
    42   24   25 2
    43   25   26 1
    44   26   27 2
    45   26   28 1
    46   28   29 1
    47   28   50 1
    48   28   51 1
    49   31   32 1
    50   31   52 1
    51   31   53 1
    52   32   36 1
    53   32   33 2
    54   33   34 1
    55   33   54 1
    56   34   35 2
    57   34   55 1
    58   35   36 1
    59   35   56 1
@<TRIPOS>MOLECULE
ZINC35361457
   80    84     0     0     0
SMALL
USER_CHARGES

@<TRIPOS>ATOM
      1 C1         -3.6892    0.0129    2.1622 C.3       1 <0>        -0.2052
      2 C2         -2.3272   -0.5179    1.7960 C.2       1 <0>         0.3400
      3 O1         -1.4349   -0.5039    2.6096 O.2       1 <0>        -0.4454
      4 C3         -2.0789   -1.0652    0.4166 C.3       1 <0>         0.0891
      5 C4         -0.5607   -1.0607    0.0959 C.3       1 <0>        -0.1503
      6 C5         -0.1956   -2.5218   -0.3025 C.3       1 <0>        -0.1159
      7 C6         -1.5580   -3.0568   -0.7699 C.3       1 <0>        -0.0729
      8 H1         -1.8211   -2.5189   -1.7093 H         1 <0>         0.0801
      9 C7         -2.4749   -2.5497    0.3613 C.3       1 <0>        -0.0309
     10 C8         -3.9120   -2.8548    0.0157 C.3       1 <0>        -0.1006
     11 C9         -4.0587   -4.3846   -0.1325 C.3       1 <0>        -0.1103
     12 C10        -3.1404   -4.9072   -1.2200 C.3       1 <0>        -0.0612
     13 H2         -3.4498   -4.3632   -2.1407 H         1 <0>         0.0632
     14 C11        -1.6762   -4.5372   -1.0192 C.3       1 <0>        -0.0562
     15 H3         -1.1853   -4.7245   -2.0135 H         1 <0>         0.0606
     16 C12        -0.9062   -5.3762   -0.0261 C.3       1 <0>        -0.1096
     17 C13        -1.6440   -6.6483    0.3776 C.3       1 <0>        -0.0867
     18 C14        -2.2966   -7.2125   -0.8584 C.2       1 <0>        -0.0411
     19 C15        -1.9616   -8.4049   -1.3224 C.2       1 <0>        -0.1814
     20 C16        -2.5663   -8.9358   -2.5494 C.2       1 <0>         0.1857
     21 N1         -2.3450  -10.1663   -2.8961 N.2       1 <0>        -0.3515
     22 O2         -1.5225  -10.9916   -2.0914 O.3       1 <0>        -0.2148
     23 C17        -1.3656  -12.3207   -2.5922 C.3       1 <0>         0.0604
     24 C18        -0.4765  -13.1060   -1.6628 C.2       1 <0>         0.5105
     25 O3         -0.0220  -12.5793   -0.6693 O.2       1 <0>        -0.5011
     26 N2         -0.1864  -14.3936   -1.9356 N.am      1 <0>        -0.7229
     27 C19         0.6779  -15.1570   -1.0320 C.3       1 <0>         0.1362
     28 H4          1.5288  -14.5443   -0.7346 H         1 <0>         0.1205
     29 C20         1.1756  -16.4191   -1.7407 C.3       1 <0>        -0.1245
     30 C21         0.1107  -16.9677   -2.6729 C.3       1 <0>        -0.1267
     31 C22        -1.1175  -17.4978   -1.9557 C.3       1 <0>        -0.1456
     32 C23        -1.8841  -16.3622   -1.2751 C.3       1 <0>         0.0925
     33 N3         -1.3081  -16.1397    0.0611 N.am      1 <0>        -0.7216
     34 C24        -0.1069  -15.5684    0.1959 C.2       1 <0>         0.5127
     35 O4          0.3586  -15.3838    1.3005 O.2       1 <0>        -0.5322
     36 C25        -3.4287   -8.0567   -3.4173 C.3       1 <0>        -0.0652
     37 C26        -3.2097   -6.5860   -3.0651 C.3       1 <0>        -0.1057
     38 C27        -3.3437   -6.3763   -1.5517 C.3       1 <0>        -0.0213
     39 C28        -4.7271   -6.8549   -1.1051 C.3       1 <0>        -0.1399
     40 C29        -2.1459   -3.1466    1.7295 C.3       1 <0>        -0.1590
     41 O5         -2.8024   -0.3251   -0.5622 O.3       1 <0>        -0.5344
     42 H5         -3.7394    1.0765    1.9293 H         1 <0>         0.0961
     43 H6         -4.4516   -0.5199    1.5939 H         1 <0>         0.0908
     44 H7         -3.8619   -0.1341    3.2284 H         1 <0>         0.0844
     45 H8         -0.3582   -0.3885   -0.7370 H         1 <0>         0.0765
     46 H9          0.0076   -0.7603    0.9740 H         1 <0>         0.0845
     47 H10         0.5132   -2.5175   -1.1337 H         1 <0>         0.0675
     48 H11         0.2019   -3.0761    0.5365 H         1 <0>         0.0767
     49 H12        -4.5732   -2.5023    0.8086 H         1 <0>         0.0627
     50 H13        -4.1826   -2.3739   -0.9258 H         1 <0>         0.0759
     51 H14        -3.8651   -4.8798    0.8095 H         1 <0>         0.0671
     52 H15        -5.1079   -4.5497   -0.4122 H         1 <0>         0.0653
     53 H16         0.0281   -5.7008   -0.5256 H         1 <0>         0.0537
     54 H17        -0.5996   -4.8283    0.8478 H         1 <0>         0.0762
     55 H18        -0.9330   -7.3681    0.7793 H         1 <0>         0.0739
     56 H19        -2.3986   -6.4150    1.1241 H         1 <0>         0.0791
     57 H20        -1.2322   -8.9974   -0.7894 H         1 <0>         0.1282
     58 H21        -2.3412  -12.8027   -2.6554 H         1 <0>         0.0865
     59 H22        -0.9134  -12.2845   -3.5833 H         1 <0>         0.0889
     60 H23        -0.5499  -14.8148   -2.7301 H         1 <0>         0.4069
     61 H24         2.0683  -16.1782   -2.3179 H         1 <0>         0.0881
     62 H25         1.4241  -17.1748   -0.9955 H         1 <0>         0.0854
     63 H26        -0.1990  -16.1740   -3.3528 H         1 <0>         0.0632
     64 H27         0.5458  -17.7756   -3.2611 H         1 <0>         0.0789
     65 H28        -1.7702  -17.9885   -2.6777 H         1 <0>         0.0824
     66 H29        -0.8079  -18.2228   -1.2030 H         1 <0>         0.0752
     67 H30        -1.7933  -15.4525   -1.8686 H         1 <0>         0.0833
     68 H31        -2.9348  -16.6360   -1.1795 H         1 <0>         0.0883
     69 H32        -1.8045  -16.4072    0.8504 H         1 <0>         0.4011
     70 H33        -3.1474   -8.2159   -4.4664 H         1 <0>         0.0890
     71 H34        -4.4759   -8.3299   -3.3046 H         1 <0>         0.0959
     72 H35        -2.2107   -6.2787   -3.3807 H         1 <0>         0.0714
     73 H36        -3.9513   -5.9714   -3.5785 H         1 <0>         0.0823
     74 H37        -5.4949   -6.2728   -1.6147 H         1 <0>         0.0641
     75 H38        -4.8449   -7.9093   -1.3550 H         1 <0>         0.0579
     76 H39        -4.8267   -6.7235   -0.0277 H         1 <0>         0.0618
     77 H40        -2.7957   -2.7043    2.4846 H         1 <0>         0.0537
     78 H41        -2.3018   -4.2250    1.7025 H         1 <0>         0.0755
     79 H42        -1.1054   -2.9360    1.9770 H         1 <0>         0.0662
     80 H43        -2.5787    0.6153   -0.5889 H         1 <0>         0.3778
@<TRIPOS>BOND
     1    1    2 1
     2    1   42 1
     3    1   43 1
     4    1   44 1
     5    2    3 2
     6    2    4 1
     7    4    9 1
     8    4    5 1
     9    4   41 1
    10    5    6 1
    11    5   45 1
    12    5   46 1
    13    6    7 1
    14    6   47 1
    15    6   48 1
    16    7    8 1
    17    7   14 1
    18    7    9 1
    19    9   10 1
    20    9   40 1
    21   10   11 1
    22   10   49 1
    23   10   50 1
    24   11   12 1
    25   11   51 1
    26   11   52 1
    27   12   13 1
    28   12   38 1
    29   12   14 1
    30   14   15 1
    31   14   16 1
    32   16   17 1
    33   16   53 1
    34   16   54 1
    35   17   18 1
    36   17   55 1
    37   17   56 1
    38   18   38 1
    39   18   19 2
    40   19   20 1
    41   19   57 1
    42   20   21 2
    43   20   36 1
    44   21   22 1
    45   22   23 1
    46   23   24 1
    47   23   58 1
    48   23   59 1
    49   24   25 2
    50   24   26 am
    51   26   27 1
    52   26   60 1
    53   27   28 1
    54   27   34 1
    55   27   29 1
    56   29   30 1
    57   29   61 1
    58   29   62 1
    59   30   31 1
    60   30   63 1
    61   30   64 1
    62   31   32 1
    63   31   65 1
    64   31   66 1
    65   32   33 1
    66   32   67 1
    67   32   68 1
    68   33   34 am
    69   33   69 1
    70   34   35 2
    71   36   37 1
    72   36   70 1
    73   36   71 1
    74   37   38 1
    75   37   72 1
    76   37   73 1
    77   38   39 1
    78   39   74 1
    79   39   75 1
    80   39   76 1
    81   40   77 1
    82   40   78 1
    83   40   79 1
    84   41   80 1
@<TRIPOS>MOLECULE
ZINC33869131
   68    72     0     0     0
SMALL
USER_CHARGES

@<TRIPOS>ATOM
      1 C1         -0.0187    1.5258    0.0104 C.3       1 <0>        -0.1514
      2 C2          0.0021   -0.0041    0.0020 C.3       1 <0>        -0.1247
      3 C3         -1.4333   -0.5336    0.0129 C.3       1 <0>         0.0553
      4 O1         -1.4139   -1.9625    0.0050 O.3       1 <0>        -0.3088
      5 C4         -2.6163   -2.5959    0.0131 C.ar      1 <0>         0.1591
      6 C5         -3.7906   -1.8573    0.0225 C.ar      1 <0>        -0.2055
      7 C6         -5.0116   -2.5036    0.0302 C.ar      1 <0>        -0.0340
      8 C7         -5.0638   -3.8852    0.0290 C.ar      1 <0>        -0.1776
      9 C8         -3.8948   -4.6236    0.0202 C.ar      1 <0>        -0.0732
     10 C9         -2.6714   -3.9821    0.0062 C.ar      1 <0>        -0.1388
     11 C10        -6.3971   -4.5876    0.0380 C.3       1 <0>         0.1186
     12 H1         -7.1788   -3.9226    0.4050 H         1 <0>         0.1510
     13 C11        -6.7417   -5.1078   -1.3540 C.3       1 <0>        -0.1455
     14 H2         -5.8872   -5.5653   -1.8527 H         1 <0>         0.1641
     15 C12        -7.8447   -6.1414   -0.9093 C.3       1 <0>        -0.1423
     16 H3         -8.5690   -5.5254   -0.3765 H         1 <0>         0.1065
     17 C13        -8.5351   -6.3952   -2.1508 C.2       1 <0>         0.5769
     18 O2         -9.0479   -7.4327   -2.5117 O.2       1 <0>        -0.3996
     19 N1         -8.4852   -5.2054   -2.8339 N.am      1 <0>        -0.5523
     20 C14        -7.5910   -4.3067   -2.2895 C.2       1 <0>         0.5628
     21 O3         -7.5089   -3.1177   -2.5114 O.2       1 <0>        -0.4328
     22 C15        -9.2522   -4.9329   -3.9754 C.ar      1 <0>         0.1024
     23 C16       -10.5091   -4.3569   -3.8476 C.ar      1 <0>        -0.0937
     24 C17       -11.2624   -4.0897   -4.9738 C.ar      1 <0>        -0.1173
     25 C18       -10.7660   -4.3953   -6.2280 C.ar      1 <0>        -0.0961
     26 C19        -9.5148   -4.9689   -6.3583 C.ar      1 <0>        -0.1119
     27 C20        -8.7543   -5.2332   -5.2358 C.ar      1 <0>        -0.0596
     28 C21        -7.3880   -5.8527   -5.3791 C.3       1 <0>        -0.1195
     29 C22        -7.2056   -6.8709    0.1931 C.3       1 <0>         0.0292
     30 N2         -6.3325   -5.8366    0.8651 N.4       1 <0>        -0.5084
     31 C23        -8.2597   -7.3781    1.1792 C.3       1 <0>        -0.0757
     32 C24        -7.5762   -8.0149    2.3617 C.ar      1 <0>        -0.1160
     33 C25        -7.2736   -9.3639    2.3399 C.ar      1 <0>        -0.0624
     34 C26        -6.6475   -9.9501    3.4228 C.ar      1 <0>        -0.1323
     35 C27        -6.3219   -9.1840    4.5326 C.ar      1 <0>         0.1150
     36 C28        -6.6262   -7.8306    4.5519 C.ar      1 <0>        -0.1411
     37 C29        -7.2477   -7.2481    3.4643 C.ar      1 <0>        -0.1259
     38 O4         -5.7063   -9.7585    5.5994 O.3       1 <0>        -0.4990
     39 C30        -6.3880   -8.0188   -0.3406 C.2       1 <0>         0.5084
     40 O5         -5.1889   -8.0655   -0.1245 O.co2     1 <0>        -0.6595
     41 O6         -6.9255   -8.9007   -0.9884 O.co2     1 <0>        -0.6058
     42 H4          1.0039    1.9031    0.0027 H         1 <0>         0.0674
     43 H5         -0.5459    1.8868   -0.8726 H         1 <0>         0.0586
     44 H6         -0.5289    1.8773    0.9072 H         1 <0>         0.0582
     45 H7          0.5123   -0.3556   -0.8948 H         1 <0>         0.0757
     46 H8          0.5293   -0.3651    0.8851 H         1 <0>         0.0754
     47 H9         -1.9435   -0.1821    0.9097 H         1 <0>         0.0660
     48 H10        -1.9605   -0.1726   -0.8702 H         1 <0>         0.0665
     49 H11        -3.7503   -0.7781    0.0241 H         1 <0>         0.1381
     50 H12        -5.9261   -1.9291    0.0375 H         1 <0>         0.1361
     51 H13        -3.9383   -5.7027    0.0196 H         1 <0>         0.1449
     52 H14        -1.7587   -4.5592   -0.0052 H         1 <0>         0.1438
     53 H15       -10.8974   -4.1184   -2.8685 H         1 <0>         0.1259
     54 H16       -12.2403   -3.6420   -4.8751 H         1 <0>         0.1328
     55 H17       -11.3571   -4.1857   -7.1072 H         1 <0>         0.1319
     56 H18        -9.1298   -5.2064   -7.3390 H         1 <0>         0.1337
     57 H19        -7.4773   -6.9388   -5.3558 H         1 <0>         0.0831
     58 H20        -6.9470   -5.5446   -6.3270 H         1 <0>         0.0771
     59 H21        -6.7516   -5.5229   -4.5580 H         1 <0>         0.0564
     60 H22        -5.3824   -6.1745    0.9013 H         1 <0>         0.4350
     61 H23        -8.8709   -6.5423    1.5196 H         1 <0>         0.0875
     62 H24        -8.8939   -8.1148    0.6860 H         1 <0>         0.1274
     63 H25        -7.5272   -9.9598    1.4756 H         1 <0>         0.1401
     64 H26        -6.4119  -11.0040    3.4055 H         1 <0>         0.1345
     65 H27        -6.3738   -7.2321    5.4147 H         1 <0>         0.1323
     66 H28        -7.4809   -6.1936    3.4770 H         1 <0>         0.1207
     67 H29        -4.7406   -9.7429    5.5516 H         1 <0>         0.3947
     68 H30        -6.6657   -5.6468    1.7983 H         1 <0>         0.4172
@<TRIPOS>BOND
     1    1    2 1
     2    1   42 1
     3    1   43 1
     4    1   44 1
     5    2    3 1
     6    2   45 1
     7    2   46 1
     8    3    4 1
     9    3   47 1
    10    3   48 1
    11    4    5 1
    12    5   10 ar
    13    5    6 ar
    14    6    7 ar
    15    6   49 1
    16    7    8 ar
    17    7   50 1
    18    8    9 ar
    19    8   11 1
    20    9   10 ar
    21    9   51 1
    22   10   52 1
    23   11   12 1
    24   11   30 1
    25   11   13 1
    26   13   14 1
    27   13   20 1
    28   13   15 1
    29   15   16 1
    30   15   17 1
    31   15   29 1
    32   17   18 2
    33   17   19 am
    34   19   20 am
    35   19   22 1
    36   20   21 2
    37   22   27 ar
    38   22   23 ar
    39   23   24 ar
    40   23   53 1
    41   24   25 ar
    42   24   54 1
    43   25   26 ar
    44   25   55 1
    45   26   27 ar
    46   26   56 1
    47   27   28 1
    48   28   57 1
    49   28   58 1
    50   28   59 1
    51   29   30 1
    52   29   31 1
    53   29   39 1
    54   30   60 1
    55   30   68 1
    56   31   32 1
    57   31   61 1
    58   31   62 1
    59   32   37 ar
    60   32   33 ar
    61   33   34 ar
    62   33   63 1
    63   34   35 ar
    64   34   64 1
    65   35   36 ar
    66   35   38 1
    67   36   37 ar
    68   36   65 1
    69   37   66 1
    70   38   67 1
    71   39   40 2
    72   39   41 1
@<TRIPOS>MOLECULE
ZINC39884082
   52    56     0     0     0
SMALL
USER_CHARGES

@<TRIPOS>ATOM
      1 C1         -0.0016    1.3741    0.0368 C.ar      1 <0>        -0.1059
      2 C2          1.1850    2.0829    0.0204 C.ar      1 <0>        -0.1135
      3 C3          2.3921    1.4096   -0.0034 C.ar      1 <0>        -0.0978
      4 C4          2.4125    0.0274   -0.0103 C.ar      1 <0>        -0.0997
      5 C5          1.2258   -0.6814    0.0070 C.ar      1 <0>        -0.0956
      6 C6          0.0188   -0.0081    0.0294 C.ar      1 <0>        -0.1140
      7 C7          3.7283   -0.7067   -0.0372 C.3       1 <0>         0.0439
      8 H1          4.5272    0.0348   -0.0480 H         1 <0>         0.0988
      9 C8          3.7993   -1.4774   -1.2972 C.2       1 <0>        -0.1970
     10 C9          4.2787   -2.7158   -1.5189 C.2       1 <0>         0.0905
     11 N1          4.2452   -3.1357   -2.8264 N.am      1 <0>        -0.5093
     12 C10         3.7197   -2.3365   -3.7735 C.2       1 <0>         0.4759
     13 O1          3.6038   -2.5537   -4.9668 O.2       1 <0>        -0.4521
     14 S1          3.2617   -0.9664   -2.9133 S.3       1 <0>         0.1026
     15 C11         4.7807   -4.4501   -3.1893 C.3       1 <0>         0.0692
     16 C12         3.6865   -5.4820   -3.0945 C.2       1 <0>         0.5005
     17 O2          2.5692   -5.1519   -2.7569 O.2       1 <0>        -0.4962
     18 N2          3.9493   -6.7716   -3.3847 N.am      1 <0>        -0.6665
     19 C13         2.9598   -7.7457   -3.2038 C.ar      1 <0>         0.1304
     20 C14         3.3088   -9.0207   -2.7788 C.ar      1 <0>        -0.1111
     21 C15         2.3313   -9.9800   -2.6010 C.ar      1 <0>        -0.1346
     22 C16         1.0040   -9.6713   -2.8468 C.ar      1 <0>         0.0886
     23 C17         0.6538   -8.4004   -3.2707 C.ar      1 <0>        -0.1343
     24 C18         1.6276   -7.4363   -3.4438 C.ar      1 <0>        -0.0893
     25 F1          0.0493  -10.6114   -2.6732 F         1 <0>        -0.1377
     26 S2          4.8663   -3.7032   -0.1655 S.3       1 <0>         0.0729
     27 C19         4.9699   -2.5594    1.2034 C.3       1 <0>        -0.1568
     28 H2          4.9160   -3.1390    2.1249 H         1 <0>         0.1823
     29 C20         3.8477   -1.5147    1.2525 C.3       1 <0>        -0.0804
     30 H3          2.8950   -1.9142    1.6003 H         1 <0>         0.1671
     31 C21         4.5368   -0.5305    2.2250 C.2       1 <0>         0.5345
     32 O3          3.9923    0.1978    3.0206 O.2       1 <0>        -0.3849
     33 N3          5.8645   -0.6426    2.0128 N.am      1 <0>        -0.5599
     34 C22         6.2075   -1.7173    1.2739 C.2       1 <0>         0.5489
     35 O4          7.2861   -1.9566    0.7849 O.2       1 <0>        -0.4207
     36 C23         6.7629    0.2451    2.4833 C.2       1 <0>         0.6969
     37 O5          6.3890    1.2017    3.1325 O.2       1 <0>        -0.5174
     38 N4          8.0759    0.0718    2.2337 N.am      1 <0>        -0.8394
     39 H4         -0.9446    1.9001    0.0599 H         1 <0>         0.1255
     40 H5          1.1691    3.1628    0.0258 H         1 <0>         0.1265
     41 H6          3.3192    1.9634   -0.0169 H         1 <0>         0.1206
     42 H7          1.2417   -1.7613    0.0012 H         1 <0>         0.1248
     43 H8         -0.9084   -0.5619    0.0425 H         1 <0>         0.1268
     44 H9          5.1622   -4.4179   -4.2099 H         1 <0>         0.1365
     45 H10         5.5891   -4.7140   -2.5074 H         1 <0>         0.1296
     46 H11         4.8240   -7.0250   -3.7189 H         1 <0>         0.4156
     47 H12         4.3440   -9.2621   -2.5877 H         1 <0>         0.1381
     48 H13         2.6023  -10.9718   -2.2705 H         1 <0>         0.1417
     49 H14        -0.3819   -8.1616   -3.4622 H         1 <0>         0.1403
     50 H15         1.3536   -6.4439   -3.7701 H         1 <0>         0.1476
     51 H16         8.3744   -0.6919    1.7154 H         1 <0>         0.4129
     52 H17         8.7225    0.7107    2.5723 H         1 <0>         0.4244
@<TRIPOS>BOND
     1    1    6 ar
     2    1    2 ar
     3    1   39 1
     4    2    3 ar
     5    2   40 1
     6    3    4 ar
     7    3   41 1
     8    4    5 ar
     9    4    7 1
    10    5    6 ar
    11    5   42 1
    12    6   43 1
    13    7    8 1
    14    7   29 1
    15    7    9 1
    16    9   14 1
    17    9   10 2
    18   10   11 1
    19   10   26 1
    20   11   12 am
    21   11   15 1
    22   12   13 2
    23   12   14 1
    24   15   16 1
    25   15   44 1
    26   15   45 1
    27   16   17 2
    28   16   18 am
    29   18   19 1
    30   18   46 1
    31   19   24 ar
    32   19   20 ar
    33   20   21 ar
    34   20   47 1
    35   21   22 ar
    36   21   48 1
    37   22   23 ar
    38   22   25 1
    39   23   24 ar
    40   23   49 1
    41   24   50 1
    42   26   27 1
    43   27   28 1
    44   27   34 1
    45   27   29 1
    46   29   30 1
    47   29   31 1
    48   31   32 2
    49   31   33 am
    50   33   34 am
    51   33   36 am
    52   34   35 2
    53   36   37 2
    54   36   38 am
    55   38   51 1
    56   38   52 1
@<TRIPOS>MOLECULE
ZINC13095258
   55    58     0     0     0
SMALL
USER_CHARGES
(2S)-4-[2-[2-[(5Z)-5-[(2-fluorophenyl)methylene]-2,4-dioxo-thiazolidin-3-yl]ethylamino]-2-oxo-ethyl]-2,3-dihydro-1,4-benzoxazine-2-carboxamide
@<TRIPOS>ATOM
      1 C1        -10.7708   -0.9718   -1.1253 C.ar      1 <0>        -0.1261
      2 C2        -11.6995   -1.7153   -0.4163 C.ar      1 <0>        -0.0618
      3 C3        -11.5319   -1.9361    0.9386 C.ar      1 <0>        -0.1559
      4 C4        -10.4341   -1.4146    1.5963 C.ar      1 <0>         0.1386
      5 C5         -9.4903   -0.6613    0.8850 C.ar      1 <0>        -0.1305
      6 C6         -9.6727   -0.4397   -0.4849 C.ar      1 <0>        -0.0639
      7 C7         -8.3195   -0.1024    1.5744 C.2       1 <0>         0.0785
      8 C8         -7.6186    0.9113    1.0077 C.2       1 <0>        -0.2120
      9 C9         -6.3467    1.5303    1.4338 C.2       1 <0>         0.5595
     10 O1         -5.7526    1.1525    2.4264 O.2       1 <0>        -0.4623
     11 N1         -5.8864    2.5157    0.6815 N.am      1 <0>        -0.5746
     12 C10        -6.5505    2.9346   -0.4149 C.2       1 <0>         0.5364
     13 O2         -6.2479    3.8241   -1.1873 O.2       1 <0>        -0.4098
     14 S1         -7.9803    1.8659   -0.4598 S.3       1 <0>        -0.0343
     15 C11        -4.6293    3.1710    1.0508 C.3       1 <0>         0.0823
     16 C12        -3.4603    2.4470    0.3797 C.3       1 <0>         0.1078
     17 N2         -2.2032    3.1024    0.7491 N.am      1 <0>        -0.7235
     18 C13        -1.0332    2.6334    0.2719 C.2       1 <0>         0.4830
     19 O3         -1.0211    1.6688   -0.4631 O.2       1 <0>        -0.5163
     20 C14         0.2599    3.3075    0.6519 C.3       1 <0>         0.0336
     21 N3          1.3671    2.7020   -0.1001 N.pl3     1 <0>        -0.4600
     22 C15         1.5877    1.3122    0.3164 C.3       1 <0>         0.0101
     23 C16         2.6668    0.6969   -0.5841 C.3       1 <0>         0.0752
     24 H1          3.5744    1.2987   -0.5372 H         1 <0>         0.1090
     25 O4          2.1650    0.6811   -1.9246 O.3       1 <0>        -0.2849
     26 C17         1.5574    1.8177   -2.3633 C.ar      1 <0>         0.1061
     27 C18         1.1565    2.8119   -1.4783 C.ar      1 <0>         0.0510
     28 C19         0.5312    3.9540   -1.9676 C.ar      1 <0>        -0.1249
     29 C20         0.3139    4.1012   -3.3235 C.ar      1 <0>        -0.1241
     30 C21         0.7168    3.1130   -4.2018 C.ar      1 <0>        -0.1067
     31 C22         1.3367    1.9738   -3.7240 C.ar      1 <0>        -0.1204
     32 C23         2.9644   -0.7103   -0.1345 C.2       1 <0>         0.5281
     33 O5          2.6833   -1.6480   -0.8506 O.2       1 <0>        -0.5098
     34 N4          3.5430   -0.9269    1.0633 N.am      1 <0>        -0.8478
     35 F1        -10.2715   -1.6299    2.9201 F         1 <0>        -0.1265
     36 H2        -10.9100   -0.8047   -2.1832 H         1 <0>         0.1409
     37 H3        -12.5599   -2.1249   -0.9245 H         1 <0>         0.1422
     38 H4        -12.2609   -2.5170    1.4840 H         1 <0>         0.1457
     39 H5         -8.9525    0.1434   -1.0396 H         1 <0>         0.1453
     40 H6         -8.0169   -0.4986    2.5325 H         1 <0>         0.1668
     41 H7         -4.5054    3.1357    2.1331 H         1 <0>         0.1103
     42 H8         -4.6506    4.2098    0.7213 H         1 <0>         0.1074
     43 H9         -3.5842    2.4824   -0.7026 H         1 <0>         0.0759
     44 H10        -3.4390    1.4082    0.7093 H         1 <0>         0.0764
     45 H11        -2.2129    3.8738    1.3370 H         1 <0>         0.4040
     46 H12         0.4349    3.1820    1.7204 H         1 <0>         0.1196
     47 H13         0.1987    4.3700    0.4161 H         1 <0>         0.1205
     48 H14         0.6606    0.7481    0.2142 H         1 <0>         0.0925
     49 H15         1.9191    1.2866    1.3544 H         1 <0>         0.1017
     50 H16         0.2185    4.7304   -1.2851 H         1 <0>         0.1242
     51 H17        -0.1714    4.9903   -3.6982 H         1 <0>         0.1255
     52 H18         0.5468    3.2309   -5.2618 H         1 <0>         0.1301
     53 H19         1.6500    1.2026   -4.4122 H         1 <0>         0.1336
     54 H20         3.7678   -0.1770    1.6360 H         1 <0>         0.4034
     55 H21         3.7346   -1.8327    1.3527 H         1 <0>         0.4107
@<TRIPOS>BOND
     1    1    6 ar
     2    1    2 ar
     3    1   36 1
     4    2    3 ar
     5    2   37 1
     6    3    4 ar
     7    3   38 1
     8    4    5 ar
     9    4   35 1
    10    5    6 ar
    11    5    7 1
    12    6   39 1
    13    7    8 2
    14    7   40 1
    15    8   14 1
    16    8    9 1
    17    9   10 2
    18    9   11 am
    19   11   12 am
    20   11   15 1
    21   12   13 2
    22   12   14 1
    23   15   16 1
    24   15   41 1
    25   15   42 1
    26   16   17 1
    27   16   43 1
    28   16   44 1
    29   17   18 am
    30   17   45 1
    31   18   19 2
    32   18   20 1
    33   20   21 1
    34   20   46 1
    35   20   47 1
    36   21   27 1
    37   21   22 1
    38   22   23 1
    39   22   48 1
    40   22   49 1
    41   23   24 1
    42   23   25 1
    43   23   32 1
    44   25   26 1
    45   26   31 ar
    46   26   27 ar
    47   27   28 ar
    48   28   29 ar
    49   28   50 1
    50   29   30 ar
    51   29   51 1
    52   30   31 ar
    53   30   52 1
    54   31   53 1
    55   32   33 2
    56   32   34 am
    57   34   54 1
    58   34   55 1
@<TRIPOS>MOLECULE
ZINC34704159
   70    74     0     0     0
SMALL
USER_CHARGES

@<TRIPOS>ATOM
      1 C1         -0.0161    1.3371    0.0094 C.2       1 <0>        -0.0048
      2 C2          1.2587    1.7711   -0.0004 C.2       1 <0>         0.0817
      3 N1          2.0558    0.6583   -0.0140 N.pl3     1 <0>        -0.5098
      4 H1          3.0256    0.6452   -0.0234 H         1 <0>         0.4619
      5 C3          1.2397   -0.4176   -0.0120 C.cat     1 <0>         0.2890
      6 N2          0.0021   -0.0041    0.0020 N.pl3     1 <0>        -0.4703
      7 C4          1.7192    3.2060    0.0024 C.3       1 <0>        -0.0593
      8 C5          1.7689    3.7228    1.4416 C.3       1 <0>         0.0770
      9 H2          0.7973    3.5772    1.9137 H         1 <0>         0.0954
     10 C6          2.1101    5.1906    1.4368 C.2       1 <0>         0.4907
     11 O1          1.2208    6.0231    1.3846 O.co2     1 <0>        -0.6739
     12 O2          3.2755    5.5457    1.4851 O.co2     1 <0>        -0.6761
     13 N3          2.7906    2.9863    2.1899 N.am      1 <0>        -0.7067
     14 C7          2.6985    2.8800    3.5303 C.2       1 <0>         0.5110
     15 O3          1.7698    3.3940    4.1170 O.2       1 <0>        -0.5010
     16 C8          3.7496    2.1225    4.3001 C.3       1 <0>         0.0443
     17 H3          3.8468    1.1061    3.9185 H         1 <0>         0.1095
     18 C9          5.1098    2.8616    4.2419 C.3       1 <0>         0.0318
     19 H4          4.9678    3.9421    4.2578 H         1 <0>         0.1016
     20 O4          5.7454    2.4043    5.4600 O.3       1 <0>        -0.3382
     21 C10         4.6763    2.2987    6.4145 C.3       1 <0>         0.2576
     22 O5          3.4402    2.1106    5.7086 O.3       1 <0>        -0.3402
     23 C11         4.9294    1.1005    7.3308 C.3       1 <0>        -0.1131
     24 C12         3.7966    0.9918    8.3536 C.3       1 <0>        -0.1143
     25 C13         3.7369    2.2736    9.1869 C.3       1 <0>        -0.1212
     26 C14         3.4752    3.4679    8.2671 C.3       1 <0>        -0.1160
     27 C15         4.6076    3.5816    7.2444 C.3       1 <0>        -0.1351
     28 C16         5.9125    2.4355    3.0110 C.3       1 <0>         0.1321
     29 H5          5.3888    2.7510    2.1087 H         1 <0>         0.1288
     30 C17         7.2954    3.0887    3.0528 C.3       1 <0>         0.0142
     31 H6          7.2147    4.1733    2.9816 H         1 <0>         0.0962
     32 C18         8.2086    2.5258    1.9351 C.3       1 <0>         0.0302
     33 O6          9.5341    2.7116    2.4720 O.3       1 <0>        -0.3783
     34 C19         9.4043    2.8272    3.8944 C.3       1 <0>         0.2584
     35 O7          8.0165    2.6998    4.2467 O.3       1 <0>        -0.3372
     36 C20        10.2062    1.7177    4.5767 C.3       1 <0>        -0.1153
     37 C21        10.0578    1.8422    6.0946 C.3       1 <0>        -0.1139
     38 C22        10.5792    3.2075    6.5475 C.3       1 <0>        -0.1211
     39 C23         9.7717    4.3145    5.8671 C.3       1 <0>        -0.1135
     40 C24         9.9195    4.1939    4.3488 C.3       1 <0>        -0.1363
     41 O8          6.0571    1.0138    3.0054 O.3       1 <0>        -0.5546
     42 H7         -0.8984    1.9597    0.0252 H         1 <0>         0.2250
     43 H8          1.5585   -1.4495   -0.0206 H         1 <0>         0.2623
     44 H9          2.7129    3.2695   -0.4410 H         1 <0>         0.1014
     45 H10         1.0231    3.8121   -0.5774 H         1 <0>         0.1308
     46 H11         3.5334    2.5753    1.7207 H         1 <0>         0.3838
     47 H12         4.9691    0.1890    6.7344 H         1 <0>         0.0699
     48 H13         5.8774    1.2354    7.8516 H         1 <0>         0.0810
     49 H14         2.8492    0.8525    7.8330 H         1 <0>         0.0701
     50 H15         3.9795    0.1405    9.0092 H         1 <0>         0.0662
     51 H16         2.9321    2.1946    9.9178 H         1 <0>         0.0647
     52 H17         4.6856    2.4148    9.7048 H         1 <0>         0.0617
     53 H18         2.5284    3.3249    7.7464 H         1 <0>         0.0735
     54 H19         3.4290    4.3807    8.8611 H         1 <0>         0.0659
     55 H20         5.5539    3.7286    7.7651 H         1 <0>         0.0804
     56 H21         4.4194    4.4302    6.5867 H         1 <0>         0.0694
     57 H22         8.0055    1.4680    1.7680 H         1 <0>         0.0854
     58 H23         8.0835    3.0935    1.0131 H         1 <0>         0.0988
     59 H24         9.8311    0.7467    4.2533 H         1 <0>         0.0700
     60 H25        11.2578    1.8099    4.3055 H         1 <0>         0.0779
     61 H26         9.0065    1.7465    6.3660 H         1 <0>         0.0744
     62 H27        10.6321    1.0541    6.5817 H         1 <0>         0.0635
     63 H28        10.4760    3.2951    7.6291 H         1 <0>         0.0638
     64 H29        11.6299    3.3039    6.2741 H         1 <0>         0.0601
     65 H30         8.7206    4.2169    6.1387 H         1 <0>         0.0736
     66 H31        10.1422    5.2867    6.1921 H         1 <0>         0.0643
     67 H32        10.9702    4.2950    4.0768 H         1 <0>         0.0763
     68 H33         9.3410    4.9801    3.8637 H         1 <0>         0.0681
     69 H34         6.5155    0.6620    3.7808 H         1 <0>         0.3928
     70 H35        -0.7811   -0.5763    0.0069 H         1 <0>         0.4634
@<TRIPOS>BOND
     1    1    6 1
     2    1    2 2
     3    1   42 1
     4    2    3 1
     5    2    7 1
     6    3    4 1
     7    3    5 1
     8    5    6 2
     9    5   43 1
    10    6   70 1
    11    7    8 1
    12    7   44 1
    13    7   45 1
    14    8    9 1
    15    8   10 1
    16    8   13 1
    17   10   11 2
    18   10   12 1
    19   13   14 am
    20   13   46 1
    21   14   15 2
    22   14   16 1
    23   16   17 1
    24   16   22 1
    25   16   18 1
    26   18   19 1
    27   18   20 1
    28   18   28 1
    29   20   21 1
    30   21   27 1
    31   21   22 1
    32   21   23 1
    33   23   24 1
    34   23   47 1
    35   23   48 1
    36   24   25 1
    37   24   49 1
    38   24   50 1
    39   25   26 1
    40   25   51 1
    41   25   52 1
    42   26   27 1
    43   26   53 1
    44   26   54 1
    45   27   55 1
    46   27   56 1
    47   28   29 1
    48   28   30 1
    49   28   41 1
    50   30   31 1
    51   30   35 1
    52   30   32 1
    53   32   33 1
    54   32   57 1
    55   32   58 1
    56   33   34 1
    57   34   40 1
    58   34   35 1
    59   34   36 1
    60   36   37 1
    61   36   59 1
    62   36   60 1
    63   37   38 1
    64   37   61 1
    65   37   62 1
    66   38   39 1
    67   38   63 1
    68   38   64 1
    69   39   40 1
    70   39   65 1
    71   39   66 1
    72   40   67 1
    73   40   68 1
    74   41   69 1
@<TRIPOS>MOLECULE
ZINC33880638
   68    72     0     0     0
SMALL
USER_CHARGES

@<TRIPOS>ATOM
      1 C1         -0.0065    1.3438    0.3171 C.ar      1 <0>        -0.1056
      2 C2          1.1785    2.0777    0.3114 C.ar      1 <0>        -0.0947
      3 C3          2.3852    1.4591    0.1969 C.ar      1 <0>        -0.1034
      4 C4          2.4411    0.0594    0.0828 C.ar      1 <0>        -0.0083
      5 C5          1.2360   -0.6870    0.0891 C.ar      1 <0>        -0.0452
      6 C6          0.0087   -0.0126    0.2087 C.ar      1 <0>        -0.1021
      7 C7          1.2918   -2.0863   -0.0244 C.ar      1 <0>        -0.0712
      8 C8          2.4989   -2.7051   -0.1386 C.ar      1 <0>        -0.1191
      9 C9          3.6835   -1.9715   -0.1443 C.ar      1 <0>        -0.1178
     10 C10         3.6681   -0.6146   -0.0367 C.ar      1 <0>        -0.1207
     11 C11         4.9603    0.1606   -0.0459 C.3       1 <0>         0.1126
     12 H1          4.8617    1.0638    0.5563 H         1 <0>         0.1612
     13 C12         5.3480    0.5190   -1.4709 C.3       1 <0>        -0.1471
     14 H2          5.9806    1.4056   -1.5138 H         1 <0>         0.1643
     15 C13         6.1148   -0.8070   -1.8442 C.3       1 <0>        -0.1491
     16 H3          5.3745   -1.5920   -1.6901 H         1 <0>         0.1063
     17 C14         6.1749   -0.7155   -3.2817 C.2       1 <0>         0.5795
     18 O1          7.0627   -1.1058   -4.0090 O.2       1 <0>        -0.4202
     19 N1          5.0083   -0.0913   -3.6487 N.am      1 <0>        -0.5928
     20 C15         4.3492    0.4837   -2.5849 C.2       1 <0>         0.5601
     21 O2          3.2024    0.8751   -2.5501 O.2       1 <0>        -0.4296
     22 C16         4.5193   -0.0310   -5.0283 C.3       1 <0>         0.1384
     23 C17         4.3992    1.4309   -5.4634 C.3       1 <0>        -0.1327
     24 C18         3.8884    1.4939   -6.9043 C.3       1 <0>        -0.1148
     25 C19         2.5164    0.8222   -6.9888 C.3       1 <0>        -0.1228
     26 C20         2.6365   -0.6397   -6.5538 C.3       1 <0>        -0.1152
     27 C21         3.1472   -0.7027   -5.1129 C.3       1 <0>        -0.1312
     28 C22         7.0067   -0.9805   -0.6852 C.3       1 <0>         0.0313
     29 N2          6.0753   -0.6875    0.4736 N.4       1 <0>        -0.5088
     30 C23         7.5240   -2.4183   -0.6073 C.3       1 <0>        -0.1140
     31 C24         8.3440   -2.5967    0.6720 C.3       1 <0>        -0.1407
     32 C25         8.8614   -4.0344    0.7498 C.3       1 <0>         0.1393
     33 N3          9.6465   -4.2052    1.9748 N.am      1 <0>        -0.7465
     34 C26        10.2051   -5.3991    2.2562 C.2       1 <0>         0.7050
     35 O3         10.0574   -6.3343    1.4935 O.2       1 <0>        -0.5926
     36 N4         10.9275   -5.5562    3.3832 N.am      1 <0>        -0.8671
     37 C27         8.1500   -0.0002   -0.7374 C.2       1 <0>         0.5072
     38 O4          8.3053    0.8039    0.1658 O.co2     1 <0>        -0.6620
     39 O5          8.9197   -0.0111   -1.6829 O.co2     1 <0>        -0.6071
     40 H4         -0.9507    1.8591    0.4134 H         1 <0>         0.1283
     41 H5          1.1384    3.1534    0.3989 H         1 <0>         0.1285
     42 H6          3.2952    2.0408    0.1932 H         1 <0>         0.1254
     43 H7         -0.9175   -0.5681    0.2149 H         1 <0>         0.1319
     44 H8          0.3818   -2.6679   -0.0208 H         1 <0>         0.1362
     45 H9          2.5390   -3.7808   -0.2257 H         1 <0>         0.1342
     46 H10         4.6280   -2.4872   -0.2357 H         1 <0>         0.1178
     47 H11         5.2185   -0.5491   -5.6847 H         1 <0>         0.1061
     48 H12         3.6999    1.9490   -4.8071 H         1 <0>         0.0733
     49 H13         5.3767    1.9094   -5.4032 H         1 <0>         0.0707
     50 H14         3.8029    2.5354   -7.2142 H         1 <0>         0.0707
     51 H15         4.5877    0.9758   -7.5606 H         1 <0>         0.0675
     52 H16         1.8171    1.3403   -6.3325 H         1 <0>         0.0644
     53 H17         2.1525    0.8671   -8.0153 H         1 <0>         0.0671
     54 H18         1.6590   -1.1182   -6.6140 H         1 <0>         0.0691
     55 H19         3.3357   -1.1578   -7.2101 H         1 <0>         0.0660
     56 H20         3.2328   -1.7442   -4.8030 H         1 <0>         0.0637
     57 H21         2.4480   -0.1846   -4.4566 H         1 <0>         0.0822
     58 H22         6.5776   -0.1888    1.1927 H         1 <0>         0.4415
     59 H23         6.6801   -3.1080   -0.5971 H         1 <0>         0.0787
     60 H24         8.1523   -2.6257   -1.4735 H         1 <0>         0.1257
     61 H25         9.1880   -1.9069    0.6618 H         1 <0>         0.0959
     62 H26         7.7157   -2.3892    1.5382 H         1 <0>         0.0617
     63 H27         8.0174   -4.7242    0.7601 H         1 <0>         0.0687
     64 H28         9.4897   -4.2419   -0.1163 H         1 <0>         0.0756
     65 H29         9.7644   -3.4591    2.5834 H         1 <0>         0.3982
     66 H30        11.0453   -4.8101    3.9917 H         1 <0>         0.3975
     67 H31        11.3295   -6.4154    3.5857 H         1 <0>         0.4164
     68 H32         5.7042   -1.5476    0.8487 H         1 <0>         0.4143
@<TRIPOS>BOND
     1    1    6 ar
     2    1    2 ar
     3    1   40 1
     4    2    3 ar
     5    2   41 1
     6    3    4 ar
     7    3   42 1
     8    4   10 ar
     9    4    5 ar
    10    5    6 ar
    11    5    7 ar
    12    6   43 1
    13    7    8 ar
    14    7   44 1
    15    8    9 ar
    16    8   45 1
    17    9   10 ar
    18    9   46 1
    19   10   11 1
    20   11   12 1
    21   11   29 1
    22   11   13 1
    23   13   14 1
    24   13   20 1
    25   13   15 1
    26   15   16 1
    27   15   17 1
    28   15   28 1
    29   17   18 2
    30   17   19 am
    31   19   20 am
    32   19   22 1
    33   20   21 2
    34   22   27 1
    35   22   23 1
    36   22   47 1
    37   23   24 1
    38   23   48 1
    39   23   49 1
    40   24   25 1
    41   24   50 1
    42   24   51 1
    43   25   26 1
    44   25   52 1
    45   25   53 1
    46   26   27 1
    47   26   54 1
    48   26   55 1
    49   27   56 1
    50   27   57 1
    51   28   29 1
    52   28   30 1
    53   28   37 1
    54   29   58 1
    55   29   68 1
    56   30   31 1
    57   30   59 1
    58   30   60 1
    59   31   32 1
    60   31   61 1
    61   31   62 1
    62   32   33 1
    63   32   63 1
    64   32   64 1
    65   33   34 am
    66   33   65 1
    67   34   35 2
    68   34   36 am
    69   36   66 1
    70   36   67 1
    71   37   38 2
    72   37   39 1
@<TRIPOS>MOLECULE
ZINC59294003
   57    61     0     0     0
SMALL
USER_CHARGES

@<TRIPOS>ATOM
      1 C1         -0.4434    1.3476   -0.6764 C.3       1 <0>         0.0380
      2 O1         -0.3027   -0.0639   -0.5036 O.3       1 <0>        -0.3425
      3 C2          0.3601   -0.7369   -1.4691 C.2       1 <0>         0.5389
      4 O2          0.8062   -0.1386   -2.4318 O.2       1 <0>        -0.5324
      5 C3          0.5348   -2.1249   -1.3631 C.2       1 <0>        -0.3078
      6 C4          1.1455   -2.8207   -2.3516 C.2       1 <0>         0.5071
      7 N1          1.3532   -4.2021   -2.3135 N.am      1 <0>        -0.5089
      8 C5          1.9624   -4.8852   -3.3031 C.2       1 <0>         0.5362
      9 O3          2.3675   -4.3108   -4.2974 O.2       1 <0>        -0.4339
     10 C6          2.1267   -6.3311   -3.1566 C.2       1 <0>        -0.2613
     11 C7          2.7018   -7.2280   -4.0082 C.2       1 <0>         0.1052
     12 C8          3.3752   -6.7729   -5.1649 C.2       1 <0>        -0.0463
     13 C9          4.0791   -7.5562   -6.0579 C.2       1 <0>        -0.1326
     14 C10         4.5750   -6.6896   -7.0443 C.2       1 <0>        -0.2294
     15 C11         4.1652   -5.4425   -6.7237 C.2       1 <0>         0.0002
     16 O4          3.4399   -5.4961   -5.5969 O.3       1 <0>        -0.1149
     17 S1          1.3715   -6.6054   -1.5622 S.3       1 <0>         0.1432
     18 C12         0.9196   -4.9172   -1.2155 C.2       1 <0>         0.1623
     19 C13         0.2907   -4.3691   -0.1423 C.2       1 <0>        -0.1749
     20 C14         0.0492   -2.8726   -0.1377 C.3       1 <0>         0.1177
     21 H1         -1.0229   -2.7037   -0.0376 H         1 <0>         0.1172
     22 C15         0.7273   -2.2845    1.0730 C.2       1 <0>        -0.0067
     23 C16         0.1078   -1.7178    2.1239 C.2       1 <0>        -0.1934
     24 C17         1.1190   -1.3053    3.0218 C.2       1 <0>        -0.2040
     25 C18         2.2959   -1.6446    2.4659 C.2       1 <0>        -0.0405
     26 O5          2.0523   -2.2426    1.2882 O.3       1 <0>        -0.1673
     27 C19        -0.1195   -5.1676    0.9365 C.2       1 <0>         0.5740
     28 O6          0.0870   -6.3691    0.9188 O.2       1 <0>        -0.5323
     29 N2         -0.7418   -4.6063    1.9921 N.am      1 <0>        -0.7169
     30 C20        -1.1700   -5.4398    3.1182 C.3       1 <0>         0.1613
     31 C21        -1.8345   -4.5756    4.1586 C.ar      1 <0>        -0.1106
     32 C22        -1.0799   -4.0004    5.1640 C.ar      1 <0>        -0.0943
     33 C23        -1.6894   -3.2077    6.1184 C.ar      1 <0>        -0.1208
     34 C24        -3.0535   -2.9897    6.0672 C.ar      1 <0>        -0.1109
     35 C25        -3.8080   -3.5641    5.0613 C.ar      1 <0>        -0.1221
     36 C26        -3.1978   -4.3533    4.1044 C.ar      1 <0>        -0.1009
     37 N3          1.5841   -2.1312   -3.4514 N.pl3     1 <0>        -0.8276
     38 H2          0.5435    1.8073   -0.7290 H         1 <0>         0.0574
     39 H3         -0.9874    1.5482   -1.5994 H         1 <0>         0.0587
     40 H4         -0.9936    1.7639    0.1674 H         1 <0>         0.1003
     41 H5          2.6428   -8.2859   -3.7988 H         1 <0>         0.1806
     42 H6          4.2204   -8.6257   -6.0073 H         1 <0>         0.1603
     43 H7          5.1729   -6.9676   -7.8996 H         1 <0>         0.1557
     44 H8          4.3832   -4.5471   -7.2869 H         1 <0>         0.2054
     45 H9         -0.9576   -1.6000    2.2561 H         1 <0>         0.1478
     46 H10         0.9742   -0.8121    3.9716 H         1 <0>         0.1475
     47 H11         3.2712   -1.4695    2.8955 H         1 <0>         0.1995
     48 H12        -0.9061   -3.6504    2.0061 H         1 <0>         0.4047
     49 H13        -1.8759   -6.1919    2.7658 H         1 <0>         0.0801
     50 H14        -0.3020   -5.9329    3.5559 H         1 <0>         0.0788
     51 H15        -0.0141   -4.1708    5.2040 H         1 <0>         0.1229
     52 H16        -1.1000   -2.7589    6.9042 H         1 <0>         0.1233
     53 H17        -3.5299   -2.3709    6.8133 H         1 <0>         0.1225
     54 H18        -4.8738   -3.3940    5.0215 H         1 <0>         0.1238
     55 H19        -3.7867   -4.7990    3.3164 H         1 <0>         0.1241
     56 H20         2.0238   -1.2735   -3.3425 H         1 <0>         0.4269
     57 H21         1.4550   -2.5009   -4.3389 H         1 <0>         0.4115
@<TRIPOS>BOND
     1    1    2 1
     2    1   38 1
     3    1   39 1
     4    1   40 1
     5    2    3 1
     6    3    4 2
     7    3    5 1
     8    5   20 1
     9    5    6 2
    10    6    7 1
    11    6   37 1
    12    7   18 1
    13    7    8 am
    14    8    9 2
    15    8   10 1
    16   10   11 2
    17   10   17 1
    18   11   12 1
    19   11   41 1
    20   12   16 1
    21   12   13 2
    22   13   14 1
    23   13   42 1
    24   14   15 2
    25   14   43 1
    26   15   16 1
    27   15   44 1
    28   17   18 1
    29   18   19 2
    30   19   20 1
    31   19   27 1
    32   20   21 1
    33   20   22 1
    34   22   26 1
    35   22   23 2
    36   23   24 1
    37   23   45 1
    38   24   25 2
    39   24   46 1
    40   25   26 1
    41   25   47 1
    42   27   28 2
    43   27   29 am
    44   29   30 1
    45   29   48 1
    46   30   31 1
    47   30   49 1
    48   30   50 1
    49   31   36 ar
    50   31   32 ar
    51   32   33 ar
    52   32   51 1
    53   33   34 ar
    54   33   52 1
    55   34   35 ar
    56   34   53 1
    57   35   36 ar
    58   35   54 1
    59   36   55 1
    60   37   56 1
    61   37   57 1
@<TRIPOS>MOLECULE
ZINC39884079
   55    59     0     0     0
SMALL
USER_CHARGES

@<TRIPOS>ATOM
      1 C1          0.1701    1.5447   -0.0080 C.3       1 <0>        -0.1154
      2 C2          0.1873    0.0380   -0.0272 C.ar      1 <0>        -0.0968
      3 C3          0.9079   -0.6560    0.9276 C.ar      1 <0>        -0.1011
      4 C4          0.9257   -2.0369    0.9127 C.ar      1 <0>        -0.1141
      5 C5          0.2187   -2.7285   -0.0621 C.ar      1 <0>         0.1360
      6 C6         -0.5043   -2.0287   -1.0193 C.ar      1 <0>        -0.1378
      7 C7         -0.5220   -0.6479   -0.9960 C.ar      1 <0>        -0.1011
      8 N1          0.2351   -4.1275   -0.0802 N.am      1 <0>        -0.6669
      9 C8          0.3137   -4.8156    1.0760 C.2       1 <0>         0.4989
     10 O1          0.2763   -4.2268    2.1358 O.2       1 <0>        -0.4970
     11 C9          0.4481   -6.3164    1.0522 C.3       1 <0>         0.0688
     12 N2          0.5135   -6.8227    2.4253 N.am      1 <0>        -0.5097
     13 C10         1.7275   -6.9489    3.0534 C.2       1 <0>         0.0950
     14 C11         1.6704   -7.4204    4.3183 C.2       1 <0>        -0.1982
     15 S1         -0.0652   -7.6789    4.5752 S.3       1 <0>         0.1011
     16 C12        -0.6178   -7.1593    3.0737 C.2       1 <0>         0.4777
     17 O2         -1.7658   -7.1025    2.6694 O.2       1 <0>        -0.4508
     18 C13         2.7837   -7.6649    5.2979 C.3       1 <0>         0.0691
     19 H1          2.4682   -7.3577    6.2950 H         1 <0>         0.1324
     20 C14         3.9817   -6.8534    4.8729 C.3       1 <0>        -0.1184
     21 H2          3.7112   -5.7983    4.8317 H         1 <0>         0.1532
     22 C15         4.4303   -7.3307    3.4588 C.3       1 <0>        -0.1572
     23 H3          4.4225   -8.4175    3.3757 H         1 <0>         0.1749
     24 S2          3.2918   -6.5448    2.2894 S.3       1 <0>         0.0428
     25 C16         5.8312   -6.7836    3.4372 C.2       1 <0>         0.5703
     26 O3          6.4516   -6.4169    2.4674 O.2       1 <0>        -0.4255
     27 N3          6.2589   -6.7840    4.7260 N.am      1 <0>        -0.5574
     28 C17         5.2714   -7.0104    5.6146 C.2       1 <0>         0.5579
     29 O4          5.4083   -7.2767    6.7851 O.2       1 <0>        -0.3919
     30 C18         7.5464   -6.5944    5.0765 C.2       1 <0>         0.7007
     31 O5          7.8650   -6.6066    6.2489 O.2       1 <0>        -0.5160
     32 N4          8.4805   -6.3914    4.1264 N.am      1 <0>        -0.8398
     33 C19         3.1370   -9.1299    5.3075 C.ar      1 <0>        -0.1038
     34 C20         3.5605   -9.7310    6.4781 C.ar      1 <0>        -0.0927
     35 C21         3.8846  -11.0748    6.4869 C.ar      1 <0>        -0.1119
     36 C22         3.7848  -11.8176    5.3254 C.ar      1 <0>        -0.1088
     37 C23         3.3603  -11.2166    4.1550 C.ar      1 <0>        -0.1153
     38 C24         3.0322   -9.8738    4.1472 C.ar      1 <0>        -0.1177
     39 H4         -0.6573    1.8907    0.6116 H         1 <0>         0.0710
     40 H5          1.1101    1.9137    0.4022 H         1 <0>         0.0670
     41 H6          0.0449    1.9196   -1.0238 H         1 <0>         0.0670
     42 H7          1.4575   -0.1175    1.6854 H         1 <0>         0.1262
     43 H8          1.4892   -2.5783    1.6582 H         1 <0>         0.1334
     44 H9         -1.0548   -2.5637   -1.7789 H         1 <0>         0.1266
     45 H10        -1.0874   -0.1031   -1.7376 H         1 <0>         0.1275
     46 H11         0.1900   -4.6022   -0.9249 H         1 <0>         0.4132
     47 H12        -0.4140   -6.7503    0.5456 H         1 <0>         0.1357
     48 H13         1.3587   -6.5912    0.5198 H         1 <0>         0.1287
     49 H14         8.2261   -6.3816    3.1904 H         1 <0>         0.4126
     50 H15         9.4071   -6.2549    4.3786 H         1 <0>         0.4248
     51 H16         3.6386   -9.1507    7.3856 H         1 <0>         0.1331
     52 H17         4.2162  -11.5443    7.4013 H         1 <0>         0.1283
     53 H18         4.0386  -12.8673    5.3321 H         1 <0>         0.1260
     54 H19         3.2826  -11.7969    3.2475 H         1 <0>         0.1265
     55 H20         2.6970   -9.4052    3.2337 H         1 <0>         0.1190
@<TRIPOS>BOND
     1    1    2 1
     2    1   39 1
     3    1   40 1
     4    1   41 1
     5    2    7 ar
     6    2    3 ar
     7    3    4 ar
     8    3   42 1
     9    4    5 ar
    10    4   43 1
    11    5    6 ar
    12    5    8 1
    13    6    7 ar
    14    6   44 1
    15    7   45 1
    16    8    9 am
    17    8   46 1
    18    9   10 2
    19    9   11 1
    20   11   12 1
    21   11   47 1
    22   11   48 1
    23   12   16 am
    24   12   13 1
    25   13   24 1
    26   13   14 2
    27   14   15 1
    28   14   18 1
    29   15   16 1
    30   16   17 2
    31   18   19 1
    32   18   20 1
    33   18   33 1
    34   20   21 1
    35   20   28 1
    36   20   22 1
    37   22   23 1
    38   22   24 1
    39   22   25 1
    40   25   26 2
    41   25   27 am
    42   27   28 am
    43   27   30 am
    44   28   29 2
    45   30   31 2
    46   30   32 am
    47   32   49 1
    48   32   50 1
    49   33   38 ar
    50   33   34 ar
    51   34   35 ar
    52   34   51 1
    53   35   36 ar
    54   35   52 1
    55   36   37 ar
    56   36   53 1
    57   37   38 ar
    58   37   54 1
    59   38   55 1
@<TRIPOS>MOLECULE
ZINC13263921
   54    56     0     0     0
SMALL
USER_CHARGES
(2R)-1-[4-[N-[(2,4-dinitrophenyl)amino]-C-methyl-carbonimidoyl]phenyl]sulfonylpiperidine-2-carboxylic acid
@<TRIPOS>ATOM
      1 C1         -6.5486    0.4334    2.4287 C.3       1 <0>        -0.1674
      2 C2         -6.4777    1.2377    1.1563 C.2       1 <0>         0.1766
      3 N1         -7.4968    1.9486    0.7801 N.2       1 <0>        -0.2589
      4 N2         -8.6625    1.9680    1.5569 N.pl3     1 <0>        -0.5566
      5 C3         -9.7578    2.7320    1.1525 C.ar      1 <0>         0.3345
      6 C4         -9.7237    3.4119   -0.0594 C.ar      1 <0>        -0.1540
      7 C5        -10.8095    4.1665   -0.4565 C.ar      1 <0>         0.0241
      8 C6        -11.9304    4.2464    0.3501 C.ar      1 <0>        -0.0954
      9 C7        -11.9682    3.5710    1.5562 C.ar      1 <0>         0.0507
     10 C8        -10.8878    2.8104    1.9577 C.ar      1 <0>        -0.1196
     11 N3        -10.9314    2.0832    3.2464 N.pl3     1 <0>         0.0374
     12 O1        -10.4096    0.9871    3.3451 O.2       1 <0>        -0.1794
     13 O2        -11.4890    2.5811    4.2080 O.3       1 <0>        -0.1201
     14 N4        -13.0927    5.0566   -0.0792 N.pl3     1 <0>         0.0378
     15 O3        -13.0611    5.6518   -1.1414 O.2       1 <0>        -0.1487
     16 O4        -14.0805    5.1280    0.6298 O.3       1 <0>        -0.1605
     17 C9         -5.2508    1.2174    0.3387 C.ar      1 <0>        -0.0204
     18 C10        -5.1815    1.9618   -0.8415 C.ar      1 <0>        -0.1018
     19 C11        -4.0304    1.9383   -1.6010 C.ar      1 <0>         0.0314
     20 C12        -2.9460    1.1798   -1.1966 C.ar      1 <0>        -0.6393
     21 C13        -3.0096    0.4356   -0.0318 C.ar      1 <0>        -0.0314
     22 C14        -4.1521    0.4539    0.7407 C.ar      1 <0>        -0.1232
     23 S1         -1.4797    1.1559   -2.1734 S.o2      1 <0>         2.6764
     24 O5         -1.7739    1.8717   -3.3652 O.2       1 <0>        -0.9014
     25 O6         -1.0220   -0.1893   -2.1860 O.2       1 <0>        -0.9779
     26 N5         -0.3364    2.0373   -1.3619 N.pl3     1 <0>        -0.9751
     27 C15         0.5623    1.3895   -0.3969 C.3       1 <0>         0.1179
     28 C16         0.4782    2.1364    0.9380 C.3       1 <0>        -0.1329
     29 C17         0.7660    3.6218    0.7055 C.3       1 <0>        -0.1156
     30 C18        -0.2809    4.2064   -0.2455 C.3       1 <0>        -0.1167
     31 C19        -0.2019    3.4820   -1.5930 C.3       1 <0>         0.1086
     32 H1          0.7594    3.6889   -2.0633 H         1 <0>         0.0755
     33 C20        -1.3158    3.9560   -2.4907 C.2       1 <0>         0.4659
     34 O7         -2.4560    3.9543   -2.0909 O.co2     1 <0>        -0.6356
     35 H2         -6.2007    1.0422    3.2633 H         1 <0>         0.0948
     36 H3         -7.5792    0.1266    2.6077 H         1 <0>         0.0758
     37 H4         -5.9174   -0.4503    2.3356 H         1 <0>         0.1005
     38 H5         -8.7082    1.4503    2.3759 H         1 <0>         0.4060
     39 H6         -8.8489    3.3497   -0.6898 H         1 <0>         0.1808
     40 H7        -10.7838    4.6948   -1.3981 H         1 <0>         0.1749
     41 H8        -12.8452    3.6355    2.1831 H         1 <0>         0.1777
     42 H9         -6.0270    2.5545   -1.1581 H         1 <0>         0.1367
     43 H10        -3.9755    2.5130   -2.5138 H         1 <0>         0.1668
     44 H11        -2.1610   -0.1576    0.2754 H         1 <0>         0.1330
     45 H12        -4.1988   -0.1242    1.6517 H         1 <0>         0.1330
     46 H13         0.2594    0.3521   -0.2549 H         1 <0>         0.0833
     47 H14         1.5856    1.4235   -0.7707 H         1 <0>         0.0710
     48 H15        -0.5220    2.0227    1.3561 H         1 <0>         0.0644
     49 H16         1.2118    1.7256    1.6316 H         1 <0>         0.0692
     50 H17         1.7576    3.7331    0.2668 H         1 <0>         0.0607
     51 H18         0.7284    4.1519    1.6572 H         1 <0>         0.0582
     52 H19        -0.0866    5.2689   -0.3916 H         1 <0>         0.0668
     53 H20        -1.2751    4.0736    0.1812 H         1 <0>         0.0712
     54 O8         -1.0412    4.3800   -3.7343 O.co2     1 <0>        -0.7293
@<TRIPOS>BOND
     1    1    2 1
     2    1   35 1
     3    1   36 1
     4    1   37 1
     5    2    3 2
     6    2   17 1
     7    3    4 1
     8    4    5 1
     9    4   38 1
    10    5   10 ar
    11    5    6 ar
    12    6    7 ar
    13    6   39 1
    14    7    8 ar
    15    7   40 1
    16    8    9 ar
    17    8   14 1
    18    9   10 ar
    19    9   41 1
    20   10   11 1
    21   11   12 2
    22   11   13 1
    23   14   15 2
    24   14   16 1
    25   17   22 ar
    26   17   18 ar
    27   18   19 ar
    28   18   42 1
    29   19   20 ar
    30   19   43 1
    31   20   21 ar
    32   20   23 1
    33   21   22 ar
    34   21   44 1
    35   22   45 1
    36   23   24 2
    37   23   25 2
    38   23   26 1
    39   26   31 1
    40   26   27 1
    41   27   28 1
    42   27   46 1
    43   27   47 1
    44   28   29 1
    45   28   48 1
    46   28   49 1
    47   29   30 1
    48   29   50 1
    49   29   51 1
    50   30   31 1
    51   30   52 1
    52   30   53 1
    53   31   32 1
    54   31   33 1
    55   33   34 2
    56   33   54 1
@<TRIPOS>MOLECULE
ZINC20899306
   54    57     0     0     0
SMALL
USER_CHARGES
3-butyl-6-hydroxy-5-[(2S)-2-(3-nitrophenyl)-2,3-dihydro-1,5-benzothiazepin-4-yl]-2-thioxo-1H-pyrimidin-4-one
@<TRIPOS>ATOM
      1 C1         -4.3658    5.7312   -4.9940 C.3       1 <0>        -0.1526
      2 C2         -4.6802    4.3956   -4.3171 C.3       1 <0>        -0.1195
      3 C3         -3.8411    4.2585   -3.0451 C.3       1 <0>        -0.1360
      4 C4         -4.1555    2.9229   -2.3682 C.3       1 <0>         0.0871
      5 N1         -3.3521    2.7917   -1.1502 N.pl3     1 <0>        -0.5100
      6 C5         -2.1301    2.2235   -1.2152 C.2       1 <0>         0.5561
      7 O1         -1.6885    1.8191   -2.2753 O.3       1 <0>        -0.5672
      8 C6         -1.3466    2.0974    0.0195 C.2       1 <0>        -0.4800
      9 C7         -1.9055    2.5863    1.2029 C.2       1 <0>         0.4901
     10 N2         -3.1477    3.1511    1.1653 N.2       1 <0>        -0.5777
     11 C8         -3.8376    3.2443    0.0177 C.2       1 <0>         0.3505
     12 S1         -5.3905    3.9645    0.0433 S.3       1 <0>         0.2286
     13 O2         -1.2286    2.5012    2.3643 O.3       1 <0>        -0.6440
     14 C9         -0.0181    1.4836    0.0102 C.2       1 <0>         0.4511
     15 N3          0.9242    2.2451   -0.2813 N.pl3     1 <0>        -0.5422
     16 C10         2.2536    2.3439   -0.3312 C.ar      1 <0>         0.1294
     17 C11         2.7411    3.6406   -0.6124 C.ar      1 <0>        -0.1546
     18 C12         4.0854    3.9086   -0.6611 C.ar      1 <0>        -0.0912
     19 C13         4.9989    2.8935   -0.4328 C.ar      1 <0>        -0.1327
     20 C14         4.5474    1.6221   -0.1657 C.ar      1 <0>        -0.0721
     21 C15         3.1809    1.3239   -0.1149 C.ar      1 <0>        -0.0895
     22 S2          2.7503   -0.3377    0.2213 S.3       1 <0>        -0.2341
     23 C16         1.2282   -0.3372    1.1589 C.3       1 <0>        -0.0040
     24 H1          1.1545    0.3759    1.9932 H         1 <0>         0.0878
     25 C17         0.0222    0.0344    0.3444 C.2       1 <0>        -0.3819
     26 C18         1.0160   -1.7134    1.7350 C.ar      1 <0>        -0.0050
     27 C19         0.8213   -2.7927    0.8931 C.ar      1 <0>        -0.0467
     28 C20         0.6266   -4.0550    1.4215 C.ar      1 <0>        -0.1183
     29 C21         0.6274   -4.2384    2.7918 C.ar      1 <0>        -0.0682
     30 C22         0.8229   -3.1596    3.6334 C.ar      1 <0>        -0.0437
     31 C23         1.0216   -1.8976    3.1048 C.ar      1 <0>        -0.0459
     32 N4          0.8243   -3.3561    5.1005 N.pl3     1 <0>         0.0338
     33 O3          0.6530   -4.4685    5.5661 O.2       1 <0>        -0.1718
     34 O4          0.9966   -2.4054    5.8421 O.3       1 <0>        -0.1642
     35 H2         -4.9691    5.8297   -5.9085 H         1 <0>         0.0529
     36 H3         -3.2975    5.7681   -5.2537 H         1 <0>         0.0527
     37 H4         -4.6048    6.5559   -4.3064 H         1 <0>         0.0551
     38 H5         -5.7485    4.3587   -4.0574 H         1 <0>         0.0675
     39 H6         -4.4413    3.5708   -5.0046 H         1 <0>         0.0643
     40 H7         -2.7728    4.2954   -3.3048 H         1 <0>         0.0697
     41 H8         -4.0800    5.0832   -2.3575 H         1 <0>         0.0735
     42 H9         -5.2238    2.8859   -2.1086 H         1 <0>         0.0957
     43 H10        -3.9165    2.0981   -3.0557 H         1 <0>         0.1027
     44 H11         2.0377    4.4400   -0.7932 H         1 <0>         0.1310
     45 H12         4.4305    4.9091   -0.8767 H         1 <0>         0.1304
     46 H13         6.0588    3.0987   -0.4638 H         1 <0>         0.1290
     47 H14         5.2652    0.8342    0.0088 H         1 <0>         0.1287
     48 H15         0.0337   -0.5405   -0.5816 H         1 <0>         0.1019
     49 H16         0.8210   -2.6495   -0.1773 H         1 <0>         0.1413
     50 H17         0.4742   -4.8980    0.7639 H         1 <0>         0.1442
     51 H18         0.4756   -5.2248    3.2047 H         1 <0>         0.1479
     52 H19         1.1780   -1.0552    3.7623 H         1 <0>         0.1487
     53 H20         0.7168    3.2588   -0.6547 H         1 <0>         0.4023
     54 H21        -5.6107    4.2489    0.9764 H         1 <0>        -0.1004
@<TRIPOS>BOND
     1    1    2 1
     2    1   35 1
     3    1   36 1
     4    1   37 1
     5    2    3 1
     6    2   38 1
     7    2   39 1
     8    3    4 1
     9    3   40 1
    10    3   41 1
    11    4    5 1
    12    4   42 1
    13    4   43 1
    14    5   11 1
    15    5    6 1
    16    6    7 1
    17    6    8 2
    18    8    9 1
    19    8   14 1
    20    9   10 2
    21    9   13 1
    22   10   11 1
    23   11   12 2
    24   12   54 1
    25   14   25 1
    26   14   15 2
    27   15   16 1
    28   15   53 1
    29   16   21 ar
    30   16   17 ar
    31   17   18 ar
    32   17   44 1
    33   18   19 ar
    34   18   45 1
    35   19   20 ar
    36   19   46 1
    37   20   21 ar
    38   20   47 1
    39   21   22 1
    40   22   23 1
    41   23   24 1
    42   23   25 1
    43   23   26 1
    44   25   48 1
    45   26   31 ar
    46   26   27 ar
    47   27   28 ar
    48   27   49 1
    49   28   29 ar
    50   28   50 1
    51   29   30 ar
    52   29   51 1
    53   30   31 ar
    54   30   32 1
    55   31   52 1
    56   32   33 2
    57   32   34 1
@<TRIPOS>MOLECULE
ZINC39465201
   55    59     0     0     0
SMALL
USER_CHARGES

@<TRIPOS>ATOM
      1 C1         -2.5320   -1.6975    0.8958 C.ar      1 <0>        -0.1218
      2 C2         -1.9972   -0.4961    0.4699 C.ar      1 <0>        -0.1175
      3 C3         -0.7124   -0.4529   -0.0383 C.ar      1 <0>        -0.1109
      4 C4          0.0379   -1.6110   -0.1201 C.ar      1 <0>        -0.0852
      5 C5         -0.4966   -2.8123    0.3067 C.ar      1 <0>        -0.1291
      6 C6         -1.7819   -2.8558    0.8136 C.ar      1 <0>        -0.1058
      7 C7          1.4382   -1.5641   -0.6749 C.3       1 <0>        -0.1089
      8 C8          2.3899   -1.1083    0.4010 C.ar      1 <0>         0.0324
      9 C9          2.8037    0.2084    0.4474 C.ar      1 <0>        -0.1301
     10 C10         3.6795    0.6320    1.4345 C.ar      1 <0>        -0.0034
     11 C11         4.1417   -0.2629    2.3755 C.ar      1 <0>        -0.0790
     12 C12         3.7243   -1.5852    2.3272 C.ar      1 <0>        -0.0231
     13 C13         2.8470   -2.0055    1.3479 C.ar      1 <0>        -0.6801
     14 S1          2.3161   -3.6850    1.3006 S.o2      1 <0>         2.6682
     15 O1          1.3411   -3.8317    2.3238 O.2       1 <0>        -0.9379
     16 O2          2.0429   -3.9864   -0.0609 O.2       1 <0>        -0.9306
     17 O3          3.5050   -4.5443    1.7062 O.3       1 <0>        -0.6619
     18 C14         3.4984   -4.9155    3.0135 C.ar      1 <0>         0.0558
     19 C15         4.4896   -4.4594    3.8704 C.ar      1 <0>        -0.1139
     20 C16         4.4803   -4.8377    5.1990 C.ar      1 <0>        -0.0988
     21 C17         3.4845   -5.6706    5.6749 C.ar      1 <0>        -0.0971
     22 C18         2.4958   -6.1269    4.8228 C.ar      1 <0>        -0.1008
     23 C19         2.4971   -5.7465    3.4948 C.ar      1 <0>        -0.0956
     24 C20         5.0959    0.1446    3.4670 C.3       1 <0>         0.0265
     25 H1          6.0920   -0.2191    3.2149 H         1 <0>         0.0705
     26 C21         4.6549   -0.5023    4.7834 C.3       1 <0>         0.1129
     27 O4          5.6367   -0.2044    5.7957 O.3       1 <0>        -0.7282
     28 P1          6.1032    1.3420    5.9852 P.3       1 <0>         2.2953
     29 O5          5.0718    2.1094    6.8423 O.2       1 <0>        -1.0947
     30 N1          6.1652    1.9784    4.4605 N.pl3     1 <0>        -1.0112
     31 N2          5.1482    1.5997    3.6075 N.3       1 <0>        -0.2617
     32 C22         5.3479    2.2469    2.3018 C.3       1 <0>         0.0293
     33 C23         4.1041    2.0781    1.4493 C.3       1 <0>        -0.0850
     34 O6          7.4972    1.4016    6.6487 O.3       1 <0>        -1.0900
     35 H2         -3.5341   -1.7305    1.2970 H         1 <0>         0.1223
     36 H3         -2.5833    0.4088    0.5338 H         1 <0>         0.1228
     37 H4         -0.2948    0.4857   -0.3717 H         1 <0>         0.1221
     38 H5          0.0894   -3.7173    0.2425 H         1 <0>         0.1249
     39 H6         -2.1996   -3.7944    1.1466 H         1 <0>         0.1242
     40 H7          1.7266   -2.5577   -1.0180 H         1 <0>         0.1456
     41 H8          1.4744   -0.8662   -1.5115 H         1 <0>         0.0960
     42 H9          2.4434    0.9112   -0.2891 H         1 <0>         0.1372
     43 H10         4.0847   -2.2890    3.0628 H         1 <0>         0.1323
     44 H11         5.2680   -3.8093    3.4989 H         1 <0>         0.1414
     45 H12         5.2517   -4.4829    5.8664 H         1 <0>         0.1465
     46 H13         3.4792   -5.9655    6.7138 H         1 <0>         0.1378
     47 H14         1.7193   -6.7777    5.1969 H         1 <0>         0.1396
     48 H15         1.7221   -6.0996    2.8307 H         1 <0>         0.1365
     49 H16         3.6872   -0.0994    5.0827 H         1 <0>         0.0722
     50 H17         4.5797   -1.5819    4.6532 H         1 <0>         0.0852
     51 H18         6.8705    2.5871    4.1904 H         1 <0>         0.3950
     52 H19         5.5579    3.3065    2.4476 H         1 <0>         0.0960
     53 H20         6.1828    1.7749    1.7840 H         1 <0>         0.0418
     54 H21         4.2962    2.4102    0.4290 H         1 <0>         0.0929
     55 H22         3.3100    2.6850    1.8841 H         1 <0>         0.0992
@<TRIPOS>BOND
     1    1    6 ar
     2    1    2 ar
     3    1   35 1
     4    2    3 ar
     5    2   36 1
     6    3    4 ar
     7    3   37 1
     8    4    5 ar
     9    4    7 1
    10    5    6 ar
    11    5   38 1
    12    6   39 1
    13    7    8 1
    14    7   40 1
    15    7   41 1
    16    8   13 ar
    17    8    9 ar
    18    9   10 ar
    19    9   42 1
    20   10   33 1
    21   10   11 ar
    22   11   12 ar
    23   11   24 1
    24   12   13 ar
    25   12   43 1
    26   13   14 1
    27   14   15 2
    28   14   16 2
    29   14   17 1
    30   17   18 1
    31   18   23 ar
    32   18   19 ar
    33   19   20 ar
    34   19   44 1
    35   20   21 ar
    36   20   45 1
    37   21   22 ar
    38   21   46 1
    39   22   23 ar
    40   22   47 1
    41   23   48 1
    42   24   25 1
    43   24   31 1
    44   24   26 1
    45   26   27 1
    46   26   49 1
    47   26   50 1
    48   27   28 1
    49   28   29 2
    50   28   30 1
    51   28   34 1
    52   30   31 1
    53   30   51 1
    54   31   32 1
    55   32   33 1
    56   32   52 1
    57   32   53 1
    58   33   54 1
    59   33   55 1
@<TRIPOS>MOLECULE
ZINC38702000
   49    53     0     0     0
SMALL
USER_CHARGES

@<TRIPOS>ATOM
      1 C1         -0.0167    1.3779    0.0096 C.ar      1 <0>        -0.1146
      2 C2          1.1711    2.0854    0.0021 C.ar      1 <0>        -0.0372
      3 C3          2.3773    1.4107   -0.0130 C.ar      1 <0>        -0.0665
      4 C4          2.3961    0.0283   -0.0201 C.ar      1 <0>        -0.0104
      5 C5          1.2086   -0.6790   -0.0117 C.ar      1 <0>        -0.0307
      6 C6          0.0021   -0.0041    0.0020 C.ar      1 <0>        -0.0465
      7 N1          1.2287   -2.1590   -0.0202 N.pl3     1 <0>         0.0425
      8 O1          2.2838   -2.7492   -0.0346 O.2       1 <0>        -0.1622
      9 O2          0.1900   -2.7777   -0.0128 O.3       1 <0>        -0.1769
     10 C7          3.6720    2.1819   -0.0222 C.3       1 <0>         0.2672
     11 H1          4.4910    1.5415    0.3051 H         1 <0>         0.1068
     12 C8          3.9491    2.7095   -1.4035 C.2       1 <0>        -0.2114
     13 C9          4.1761    2.4325   -2.7137 C.2       1 <0>         0.2001
     14 N2          4.3474    3.6320   -3.3436 N.pl3     1 <0>        -0.3854
     15 N3          4.2368    4.5920   -2.4957 N.2       1 <0>        -0.2231
     16 H2          4.5262    3.7432   -4.2904 H         1 <0>         0.4486
     17 C10         3.9940    4.1175   -1.2901 C.2       1 <0>        -0.0508
     18 C11         3.7521    4.4657    0.1216 C.2       1 <0>         0.6203
     19 O3          3.7243    5.5987    0.5614 O.2       1 <0>        -0.5160
     20 N4          3.5669    3.3535    0.8552 N.am      1 <0>        -0.5942
     21 C12         3.3019    3.3169    2.2956 C.3       1 <0>         0.1696
     22 H3          3.1810    2.2837    2.6214 H         1 <0>         0.1214
     23 C13         2.0245    4.1133    2.6091 C.3       1 <0>        -0.1509
     24 C14         1.9121    4.3514    4.1343 C.3       1 <0>        -0.5702
     25 S1          3.6704    4.3523    4.6736 S.o2      1 <0>         2.3737
     26 O4          4.0298    5.6669    5.0759 O.2       1 <0>        -0.9321
     27 O5          3.8811    3.2661    5.5652 O.2       1 <0>        -0.9336
     28 C15         4.4834    3.9751    3.0640 C.3       1 <0>        -0.5969
     29 C16         4.2282    1.0918   -3.3372 C.ar      1 <0>        -0.2234
     30 C17         5.4210    0.6192   -3.8837 C.ar      1 <0>        -0.0275
     31 C18         5.4638   -0.6330   -4.4638 C.ar      1 <0>        -0.1666
     32 C19         4.3258   -1.4214   -4.5054 C.ar      1 <0>        -0.0440
     33 C20         3.1388   -0.9623   -3.9666 C.ar      1 <0>        -0.2462
     34 C21         3.0824    0.2897   -3.3762 C.ar      1 <0>         0.3046
     35 O6          1.9171    0.7392   -2.8414 O.3       1 <0>        -0.6829
     36 Cl1         6.9488   -1.2209   -5.1440 Cl        1 <0>        -0.1203
     37 H4         -0.9591    1.9051    0.0259 H         1 <0>         0.1374
     38 H5          1.1565    3.1653    0.0076 H         1 <0>         0.1263
     39 H6          3.3385   -0.4989   -0.0326 H         1 <0>         0.1439
     40 H7         -0.9258   -0.5567    0.0082 H         1 <0>         0.1432
     41 H8          2.0613    5.0735    2.0947 H         1 <0>         0.1069
     42 H9          1.1551    3.5528    2.2654 H         1 <0>         0.1031
     43 H10         1.4437    5.3135    4.3418 H         1 <0>         0.1457
     44 H11         1.3616    3.5412    4.6125 H         1 <0>         0.1420
     45 H12         5.3082    3.2744    3.1939 H         1 <0>         0.1486
     46 H13         4.8174    4.8863    2.5678 H         1 <0>         0.1545
     47 H14         6.3099    1.2319   -3.8535 H         1 <0>         0.1037
     48 H15         4.3662   -2.3996   -4.9613 H         1 <0>         0.1058
     49 H16         2.2551   -1.5821   -4.0023 H         1 <0>         0.1048
@<TRIPOS>BOND
     1    1    6 ar
     2    1    2 ar
     3    1   37 1
     4    2    3 ar
     5    2   38 1
     6    3    4 ar
     7    3   10 1
     8    4    5 ar
     9    4   39 1
    10    5    6 ar
    11    5    7 1
    12    6   40 1
    13    7    8 2
    14    7    9 1
    15   10   11 1
    16   10   20 1
    17   10   12 1
    18   12   17 1
    19   12   13 2
    20   13   29 1
    21   13   14 1
    22   14   16 1
    23   14   15 1
    24   15   17 2
    25   17   18 1
    26   18   19 2
    27   18   20 am
    28   20   21 1
    29   21   22 1
    30   21   28 1
    31   21   23 1
    32   23   24 1
    33   23   41 1
    34   23   42 1
    35   24   25 1
    36   24   43 1
    37   24   44 1
    38   25   26 2
    39   25   27 2
    40   25   28 1
    41   28   45 1
    42   28   46 1
    43   29   34 ar
    44   29   30 ar
    45   30   31 ar
    46   30   47 1
    47   31   32 ar
    48   31   36 1
    49   32   33 ar
    50   32   48 1
    51   33   34 ar
    52   33   49 1
    53   34   35 1
@<TRIPOS>MOLECULE
ZINC54646940
   61    64     0     0     0
SMALL
USER_CHARGES

@<TRIPOS>ATOM
      1 C1         -0.0134    1.5304    0.0272 C.3       1 <0>        -0.1236
      2 C2          0.0032    0.0006    0.0086 C.3       1 <0>        -0.0754
      3 C3          0.7741   -0.5846   -1.1999 C.3       1 <0>        -0.1137
      4 C4          1.3558   -1.9282   -0.7219 C.3       1 <0>        -0.1182
      5 C5          0.9071   -2.0874    0.7514 C.3       1 <0>        -0.1062
      6 H1          1.6137   -2.6571    1.3549 H         1 <0>         0.1314
      7 C6          0.7388   -0.6180    1.2305 C.3       1 <0>        -0.0564
      8 C7         -0.1246   -0.5433    2.4914 C.3       1 <0>        -0.1624
      9 C8          2.0973    0.0495    1.4539 C.3       1 <0>        -0.1355
     10 C9         -0.4812   -2.7005    0.7261 C.2       1 <0>         0.5307
     11 O1         -0.6396   -3.8644    1.0260 O.2       1 <0>        -0.4972
     12 N1         -1.5354   -1.9437    0.3692 N.am      1 <0>        -0.5799
     13 C10        -1.3874   -0.6081    0.0071 C.2       1 <0>         0.5374
     14 O2         -2.3419    0.0523   -0.3427 O.2       1 <0>        -0.4764
     15 C11        -2.8750   -2.5358    0.4001 C.3       1 <0>         0.0947
     16 C12        -3.4984   -2.3151    1.7798 C.3       1 <0>        -0.1194
     17 C13        -4.8975   -2.9335    1.8121 C.3       1 <0>        -0.1336
     18 C14        -5.5116   -2.7162    3.1710 C.2       1 <0>         0.5116
     19 O3         -4.8913   -2.1248    4.0292 O.2       1 <0>        -0.5115
     20 N2         -6.7501   -3.1789    3.4327 N.am      1 <0>        -0.6749
     21 C15        -7.2824   -3.0630    4.7215 C.ar      1 <0>         0.1765
     22 C16        -8.1050   -4.0612    5.2269 C.ar      1 <0>        -0.1686
     23 C17        -8.6289   -3.9439    6.4995 C.ar      1 <0>        -0.0040
     24 C18        -8.3351   -2.8339    7.2700 C.ar      1 <0>        -0.6365
     25 C19        -7.5167   -1.8379    6.7695 C.ar      1 <0>        -0.0042
     26 C20        -6.9847   -1.9523    5.5001 C.ar      1 <0>        -0.1445
     27 S1         -9.0055   -2.6880    8.8930 S.o2      1 <0>         2.6377
     28 O4         -9.0226   -1.3011    9.2022 O.2       1 <0>        -1.0107
     29 O5        -10.1786   -3.4893    8.9214 O.2       1 <0>        -1.0114
     30 N3         -7.9264   -3.3916    9.9336 N.2       1 <0>        -1.0310
     31 C21        -8.1950   -3.4241   11.2930 C.2       1 <0>         0.4020
     32 N4         -9.2473   -2.9566   11.9302 N.2       1 <0>        -0.6663
     33 C22        -9.3547   -3.0676   13.2426 C.2       1 <0>         0.1005
     34 C23        -8.3378   -3.6808   13.8942 C.2       1 <0>        -0.3467
     35 S2         -7.2580   -4.0778   12.5288 S.3       1 <0>         0.0093
     36 H2          1.0102    1.9050    0.0197 H         1 <0>         0.0763
     37 H3         -0.5415    1.8987   -0.8524 H         1 <0>         0.0708
     38 H4         -0.5208    1.8773    0.9274 H         1 <0>         0.0670
     39 H5          0.0941   -0.7461   -2.0363 H         1 <0>         0.0736
     40 H6          1.5786    0.0894   -1.4940 H         1 <0>         0.0917
     41 H7          0.9595   -2.7449   -1.3253 H         1 <0>         0.0746
     42 H8          2.4439   -1.9093   -0.7830 H         1 <0>         0.0906
     43 H9         -1.0524   -1.0921    2.3295 H         1 <0>         0.0607
     44 H10         0.4165   -0.9835    3.3289 H         1 <0>         0.0722
     45 H11        -0.3531    0.4990    2.7140 H         1 <0>         0.0703
     46 H12         1.9531    1.1143    1.6372 H         1 <0>         0.0684
     47 H13         2.5879   -0.4042    2.3151 H         1 <0>         0.0660
     48 H14         2.7186   -0.0859    0.5687 H         1 <0>         0.0647
     49 H15        -3.4982   -2.0645   -0.3598 H         1 <0>         0.0931
     50 H16        -2.8044   -3.6050    0.2001 H         1 <0>         0.0970
     51 H17        -2.8752   -2.7865    2.5397 H         1 <0>         0.0783
     52 H18        -3.5691   -1.2460    1.9797 H         1 <0>         0.0766
     53 H19        -5.5207   -2.4622    1.0521 H         1 <0>         0.1007
     54 H20        -4.8269   -4.0027    1.6121 H         1 <0>         0.1018
     55 H21        -7.2724   -3.5922    2.7275 H         1 <0>         0.4116
     56 H22        -8.3351   -4.9282    4.6255 H         1 <0>         0.1302
     57 H23        -9.2689   -4.7197    6.8930 H         1 <0>         0.1418
     58 H24        -7.2895   -0.9721    7.3737 H         1 <0>         0.1407
     59 H25        -6.3415   -1.1765    5.1116 H         1 <0>         0.1422
     60 H26       -10.2151   -2.6860   13.7722 H         1 <0>         0.1455
     61 H27        -8.2155   -3.8785   14.9489 H         1 <0>         0.1704
@<TRIPOS>BOND
     1    1    2 1
     2    1   36 1
     3    1   37 1
     4    1   38 1
     5    2    7 1
     6    2   13 1
     7    2    3 1
     8    3    4 1
     9    3   39 1
    10    3   40 1
    11    4    5 1
    12    4   41 1
    13    4   42 1
    14    5    6 1
    15    5    7 1
    16    5   10 1
    17    7    8 1
    18    7    9 1
    19    8   43 1
    20    8   44 1
    21    8   45 1
    22    9   46 1
    23    9   47 1
    24    9   48 1
    25   10   11 2
    26   10   12 am
    27   12   13 am
    28   12   15 1
    29   13   14 2
    30   15   16 1
    31   15   49 1
    32   15   50 1
    33   16   17 1
    34   16   51 1
    35   16   52 1
    36   17   18 1
    37   17   53 1
    38   17   54 1
    39   18   19 2
    40   18   20 am
    41   20   21 1
    42   20   55 1
    43   21   26 ar
    44   21   22 ar
    45   22   23 ar
    46   22   56 1
    47   23   24 ar
    48   23   57 1
    49   24   25 ar
    50   24   27 1
    51   25   26 ar
    52   25   58 1
    53   26   59 1
    54   27   28 2
    55   27   29 2
    56   27   30 1
    57   30   31 1
    58   31   35 1
    59   31   32 2
    60   32   33 1
    61   33   34 2
    62   33   60 1
    63   34   35 1
    64   34   61 1
@<TRIPOS>MOLECULE
ZINC06751364
   53    56     0     0     0
SMALL
USER_CHARGES
N-cyclohexyl-hydroxy-trimethyl-BLAHcarboxamide
@<TRIPOS>ATOM
      1 C1         -4.4538    7.4883    2.1945 C.3       1 <0>        -0.0800
      2 C2         -3.2725    8.0077    1.4161 C.2       1 <0>        -0.0569
      3 C3         -2.8113    9.3936    1.3377 C.ar      1 <0>        -0.0880
      4 C4         -1.6888    9.3754    0.4915 C.ar      1 <0>         0.0409
      5 C5         -1.0286   10.5665    0.2156 C.ar      1 <0>        -0.0712
      6 C6         -1.4743   11.7439    0.7707 C.ar      1 <0>        -0.1082
      7 C7         -2.5872   11.7660    1.6150 C.ar      1 <0>         0.1299
      8 C8         -3.2573   10.5967    1.8985 C.ar      1 <0>        -0.1111
      9 C9         -4.4666   10.5802    2.7984 C.3       1 <0>         0.1522
     10 H1         -5.3692   10.5084    2.1915 H         1 <0>         0.0719
     11 C10        -4.5119   11.8658    3.6278 C.3       1 <0>        -0.1810
     12 C11        -4.2927   13.0544    2.6827 C.3       1 <0>         0.1165
     13 O1         -2.9756   12.9587    2.1393 O.3       1 <0>        -0.3033
     14 C12        -5.3217   13.0103    1.5514 C.3       1 <0>        -0.1801
     15 C13        -4.4368   14.3645    3.4599 C.3       1 <0>        -0.1393
     16 O2         -4.3927    9.4527    3.6732 O.3       1 <0>        -0.5460
     17 O3         -1.4900    8.0991    0.1052 O.3       1 <0>        -0.1843
     18 C14        -2.4183    7.2835    0.6476 C.2       1 <0>        -0.0483
     19 C15        -2.4969    5.8315    0.4339 C.2       1 <0>         0.6045
     20 O4         -3.3762    5.1844    0.9706 O.2       1 <0>        -0.5106
     21 N1         -1.5949    5.2169   -0.3567 N.am      1 <0>        -0.7167
     22 C16        -1.6732    3.7696   -0.5697 C.3       1 <0>         0.1451
     23 C17        -1.0110    3.4136   -1.9022 C.3       1 <0>        -0.1273
     24 C18        -1.0928    1.9021   -2.1247 C.3       1 <0>        -0.1159
     25 C19        -0.3696    1.1792   -0.9866 C.3       1 <0>        -0.1232
     26 C20        -1.0318    1.5352    0.3459 C.3       1 <0>        -0.1171
     27 C21        -0.9500    3.0467    0.5684 C.3       1 <0>        -0.1305
     28 H2         -4.1545    7.2980    3.2251 H         1 <0>         0.0841
     29 H3         -5.2532    8.2292    2.1791 H         1 <0>         0.0679
     30 H4         -4.8081    6.5621    1.7421 H         1 <0>         0.0797
     31 H5         -0.1664   10.5683   -0.4348 H         1 <0>         0.1446
     32 H6         -0.9559   12.6653    0.5503 H         1 <0>         0.1490
     33 H7         -5.4837   11.9563    4.1130 H         1 <0>         0.0890
     34 H8         -3.7251   11.8448    4.3818 H         1 <0>         0.0886
     35 H9         -6.3261   13.0632    1.9715 H         1 <0>         0.0757
     36 H10        -5.1627   13.8560    0.8824 H         1 <0>         0.0717
     37 H11        -5.2095   12.0802    0.9942 H         1 <0>         0.0637
     38 H12        -3.6958   14.3965    4.2586 H         1 <0>         0.0686
     39 H13        -4.2804   15.2062    2.7852 H         1 <0>         0.0710
     40 H14        -5.4368   14.4240    3.8894 H         1 <0>         0.0799
     41 H15        -5.1559    9.3591    4.2596 H         1 <0>         0.3793
     42 H16        -0.8938    5.7328   -0.7846 H         1 <0>         0.4057
     43 H17        -2.7185    3.4613   -0.5897 H         1 <0>         0.0921
     44 H18         0.0343    3.7219   -1.8823 H         1 <0>         0.0694
     45 H19        -1.5262    3.9286   -2.7130 H         1 <0>         0.0700
     46 H20        -0.6211    1.6485   -3.0740 H         1 <0>         0.0686
     47 H21        -2.1381    1.5938   -2.1447 H         1 <0>         0.0661
     48 H22        -0.4279    0.1024   -1.1451 H         1 <0>         0.0651
     49 H23         0.6757    1.4874   -0.9666 H         1 <0>         0.0630
     50 H24        -2.0771    1.2269    0.3260 H         1 <0>         0.0654
     51 H25        -0.5166    1.0202    1.1567 H         1 <0>         0.0662
     52 H26         0.0953    3.3549    0.5884 H         1 <0>         0.0648
     53 H27        -1.4217    3.3003    1.5177 H         1 <0>         0.0688
@<TRIPOS>BOND
     1    1    2 1
     2    1   28 1
     3    1   29 1
     4    1   30 1
     5    2   18 2
     6    2    3 1
     7    3    8 ar
     8    3    4 ar
     9    4    5 ar
    10    4   17 1
    11    5    6 ar
    12    5   31 1
    13    6    7 ar
    14    6   32 1
    15    7   13 1
    16    7    8 ar
    17    8    9 1
    18    9   10 1
    19    9   11 1
    20    9   16 1
    21   11   12 1
    22   11   33 1
    23   11   34 1
    24   12   13 1
    25   12   14 1
    26   12   15 1
    27   14   35 1
    28   14   36 1
    29   14   37 1
    30   15   38 1
    31   15   39 1
    32   15   40 1
    33   16   41 1
    34   17   18 1
    35   18   19 1
    36   19   20 2
    37   19   21 am
    38   21   22 1
    39   21   42 1
    40   22   27 1
    41   22   23 1
    42   22   43 1
    43   23   24 1
    44   23   44 1
    45   23   45 1
    46   24   25 1
    47   24   46 1
    48   24   47 1
    49   25   26 1
    50   25   48 1
    51   25   49 1
    52   26   27 1
    53   26   50 1
    54   26   51 1
    55   27   52 1
    56   27   53 1
@<TRIPOS>MOLECULE
ZINC20719890
   45    49     0     0     0
SMALL
USER_CHARGES
(3aS,4S,9bR)-4-(1H-indol-3-yl)-6-methyl-9-nitro-3a,4,5,9b-tetrahydro-3H-cyclopenta[c]quinoline
@<TRIPOS>ATOM
      1 C1          3.6672    2.1782   -0.0214 C.3       1 <0>        -0.1137
      2 C2          2.3722    1.4076   -0.0132 C.ar      1 <0>        -0.1126
      3 C3          1.1708    2.0834   -0.0613 C.ar      1 <0>        -0.0862
      4 C4         -0.0164    1.3749   -0.0533 C.ar      1 <0>        -0.1066
      5 C5          0.0021   -0.0041    0.0020 C.ar      1 <0>        -0.0045
      6 C6          1.2062   -0.6935    0.0503 C.ar      1 <0>        -0.0656
      7 C7          2.3937    0.0147    0.0434 C.ar      1 <0>         0.2243
      8 N1          3.6354   -0.6194    0.0915 N.pl3     1 <0>        -0.7452
      9 C8          3.5810   -1.9574   -0.4995 C.3       1 <0>         0.2189
     10 H1          4.5844   -2.3986   -0.4076 H         1 <0>         0.0961
     11 C9          2.5585   -2.8090    0.2356 C.3       1 <0>        -0.0936
     12 H2          2.6712   -3.8163   -0.1918 H         1 <0>         0.1028
     13 C10         1.1492   -2.1969    0.1057 C.3       1 <0>        -0.0140
     14 H3          0.6252   -2.5223   -0.8051 H         1 <0>         0.1138
     15 C11         0.4747   -2.5964    1.4076 C.2       1 <0>        -0.1760
     16 C12         1.3688   -2.8774    2.3216 C.2       1 <0>        -0.1544
     17 C13         2.7699   -2.7050    1.7657 C.3       1 <0>        -0.0889
     18 C14         3.1885   -1.8455   -1.9502 C.2       1 <0>        -0.1916
     19 C15         2.5591   -0.8110   -2.5296 C.2       1 <0>         0.0572
     20 N2          2.3732   -1.0645   -3.8613 N.pl3     1 <0>        -0.6051
     21 H4          1.8769   -0.3183   -4.4992 H         1 <0>         0.4409
     22 C16         2.8827   -2.3040   -4.1775 C.ar      1 <0>         0.1095
     23 C17         3.4158   -2.8476   -2.9942 C.ar      1 <0>        -0.0960
     24 C18         4.0064   -4.1123   -3.0131 C.ar      1 <0>        -0.0735
     25 C19         4.0637   -4.8169   -4.1827 C.ar      1 <0>        -0.1450
     26 C20         3.5389   -4.2853   -5.3524 C.ar      1 <0>        -0.0991
     27 C21         2.9516   -3.0389   -5.3563 C.ar      1 <0>        -0.1299
     28 N3         -1.2734   -0.7547    0.0105 N.pl3     1 <0>         0.0285
     29 O1         -1.3660   -1.8050   -0.5993 O.2       1 <0>        -0.1479
     30 O2         -2.2305   -0.3222    0.6273 O.3       1 <0>        -0.1603
     31 H5          3.4522    3.2560   -0.0687 H         1 <0>         0.0730
     32 H6          4.2632    1.8843   -0.8980 H         1 <0>         0.0761
     33 H7          4.2314    1.9568    0.8965 H         1 <0>         0.0728
     34 H8          1.1576    3.1624   -0.1054 H         1 <0>         0.1442
     35 H9         -0.9589    1.9007   -0.0949 H         1 <0>         0.1432
     36 H10         4.5820   -0.2372    0.5014 H         1 <0>         0.4461
     37 H11        -0.5968   -2.6691    1.6456 H         1 <0>         0.1243
     38 H12         1.0486   -3.1876    3.3272 H         1 <0>         0.1304
     39 H13         3.4548   -3.4999    2.0961 H         1 <0>         0.0731
     40 H14         3.2022   -1.7235    2.0103 H         1 <0>         0.0862
     41 H15         2.2481    0.0893   -2.0206 H         1 <0>         0.1637
     42 H16         4.4169   -4.5323   -2.1068 H         1 <0>         0.1195
     43 H17         4.5207   -5.7953   -4.1968 H         1 <0>         0.1220
     44 H18         3.5917   -4.8542   -6.2689 H         1 <0>         0.1245
     45 H19         2.5464   -2.6337   -6.2718 H         1 <0>         0.1185
@<TRIPOS>BOND
     1    1    2 1
     2    1   31 1
     3    1   32 1
     4    1   33 1
     5    2    7 ar
     6    2    3 ar
     7    3    4 ar
     8    3   34 1
     9    4    5 ar
    10    4   35 1
    11    5    6 ar
    12    5   28 1
    13    6   13 1
    14    6    7 ar
    15    7    8 1
    16    8    9 1
    17    8   36 1
    18    9   10 1
    19    9   11 1
    20    9   18 1
    21   11   12 1
    22   11   17 1
    23   11   13 1
    24   13   14 1
    25   13   15 1
    26   15   16 2
    27   15   37 1
    28   16   17 1
    29   16   38 1
    30   17   39 1
    31   17   40 1
    32   18   23 1
    33   18   19 2
    34   19   20 1
    35   19   41 1
    36   20   21 1
    37   20   22 1
    38   22   27 ar
    39   22   23 ar
    40   23   24 ar
    41   24   25 ar
    42   24   42 1
    43   25   26 ar
    44   25   43 1
    45   26   27 ar
    46   26   44 1
    47   27   45 1
    48   28   29 2
    49   28   30 1
@<TRIPOS>MOLECULE
ZINC06720031
   42    45     0     0     0
SMALL
USER_CHARGES

@<TRIPOS>ATOM
      1 C1         -0.2273    1.9557   -0.1845 C.3       1 <0>        -0.1427
      2 S1         -0.1677    0.1441   -0.2559 S.3       1 <0>        -0.1243
      3 C2         -1.8591   -0.3418   -0.1689 C.ar      1 <0>        -0.0812
      4 C3         -2.8567    0.6214   -0.0765 C.ar      1 <0>        -0.1293
      5 C4         -4.1811    0.2368   -0.0084 C.ar      1 <0>        -0.0852
      6 C5         -4.5155   -1.1050   -0.0320 C.ar      1 <0>        -0.0738
      7 C6         -3.5254   -2.0663   -0.1234 C.ar      1 <0>        -0.0805
      8 C7         -2.1992   -1.6890   -0.1981 C.ar      1 <0>        -0.0987
      9 C8         -5.9621   -1.5205    0.0425 C.3       1 <0>         0.1213
     10 H1         -6.5914   -0.6401    0.1721 H         1 <0>         0.0970
     11 C9         -6.1614   -2.4628    1.2013 C.2       1 <0>        -0.2484
     12 C10        -6.1589   -2.1913    2.5728 C.2       1 <0>         0.1621
     13 N1         -6.3733   -3.3258    3.2117 N.2       1 <0>        -0.2477
     14 N2         -6.5179   -4.3480    2.2609 N.pl3     1 <0>        -0.4448
     15 H2         -6.6837   -5.2846    2.4512 H         1 <0>         0.4489
     16 C11        -6.3856   -3.7989    1.0356 C.2       1 <0>         0.2755
     17 O1         -6.4496   -4.3845   -0.1863 O.3       1 <0>        -0.2292
     18 C12        -6.5594   -3.5774   -1.2610 C.2       1 <0>         0.4392
     19 C13        -6.3504   -2.2417   -1.2241 C.2       1 <0>        -0.2572
     20 C14        -6.5019   -1.4847   -2.4302 C.1       1 <0>         0.2703
     21 N3         -6.6221   -0.8842   -3.3870 N.1       1 <0>        -0.4358
     22 N4         -6.9042   -4.1443   -2.4627 N.pl3     1 <0>        -0.8301
     23 C15        -5.9509   -0.8620    3.1994 C.ar      1 <0>        -0.0189
     24 C16        -5.1414   -0.7395    4.3267 C.ar      1 <0>        -0.0858
     25 C17        -4.9515    0.4991    4.9055 C.ar      1 <0>        -0.1194
     26 C18        -5.5632    1.6173    4.3683 C.ar      1 <0>        -0.1070
     27 C19        -6.3682    1.5013    3.2496 C.ar      1 <0>        -0.1194
     28 C20        -6.5600    0.2685    2.6591 C.ar      1 <0>        -0.0917
     29 H3          0.7859    2.3548   -0.2326 H         1 <0>         0.1090
     30 H4         -0.8070    2.3337   -1.0266 H         1 <0>         0.0837
     31 H5         -0.6966    2.2673    0.7487 H         1 <0>         0.0843
     32 H6         -2.5963    1.6693   -0.0577 H         1 <0>         0.1224
     33 H7         -4.9569    0.9848    0.0637 H         1 <0>         0.1245
     34 H8         -3.7901   -3.1132   -0.1412 H         1 <0>         0.1174
     35 H9         -1.4269   -2.4401   -0.2747 H         1 <0>         0.1255
     36 H10        -7.0611   -5.0998   -2.5210 H         1 <0>         0.4119
     37 H11        -6.9909   -3.5894   -3.2536 H         1 <0>         0.4284
     38 H12        -4.6636   -1.6121    4.7471 H         1 <0>         0.1259
     39 H13        -4.3244    0.5952    5.7795 H         1 <0>         0.1261
     40 H14        -5.4119    2.5846    4.8243 H         1 <0>         0.1240
     41 H15        -6.8437    2.3776    2.8344 H         1 <0>         0.1271
     42 H16        -7.1849    0.1798    1.7828 H         1 <0>         0.1267
@<TRIPOS>BOND
     1    1    2 1
     2    1   29 1
     3    1   30 1
     4    1   31 1
     5    2    3 1
     6    3    8 ar
     7    3    4 ar
     8    4    5 ar
     9    4   32 1
    10    5    6 ar
    11    5   33 1
    12    6    7 ar
    13    6    9 1
    14    7    8 ar
    15    7   34 1
    16    8   35 1
    17    9   10 1
    18    9   19 1
    19    9   11 1
    20   11   16 2
    21   11   12 1
    22   12   13 2
    23   12   23 1
    24   13   14 1
    25   14   15 1
    26   14   16 1
    27   16   17 1
    28   17   18 1
    29   18   19 2
    30   18   22 1
    31   19   20 1
    32   20   21 3
    33   22   36 1
    34   22   37 1
    35   23   28 ar
    36   23   24 ar
    37   24   25 ar
    38   24   38 1
    39   25   26 ar
    40   25   39 1
    41   26   27 ar
    42   26   40 1
    43   27   28 ar
    44   27   41 1
    45   28   42 1
@<TRIPOS>MOLECULE
ZINC54359305
   40    43     0     0     0
SMALL
USER_CHARGES

@<TRIPOS>ATOM
      1 C1          0.4389    0.5978   -1.1918 C.ar      1 <0>        -0.1236
      2 C2          1.6170    1.3153   -1.2022 C.ar      1 <0>        -0.0936
      3 C3          2.3600    1.4489   -0.0415 C.ar      1 <0>        -0.0393
      4 C4          1.9265    0.8641    1.1363 C.ar      1 <0>        -0.0953
      5 C5          0.7504    0.1436    1.1599 C.ar      1 <0>        -0.0941
      6 C6         -0.0038    0.0055   -0.0072 C.ar      1 <0>         0.0878
      7 N1         -1.1725   -0.7076    0.0099 N.2       1 <0>        -0.4597
      8 C7         -1.3690   -1.6682   -0.8652 C.2       1 <0>         0.3553
      9 N2         -0.3835   -2.0859   -1.7502 N.pl3     1 <0>        -0.5683
     10 N3         -0.7391   -2.4787   -3.0375 N.2       1 <0>        -0.2494
     11 C8         -1.9044   -2.6494   -3.5178 C.2       1 <0>         0.1610
     12 C9         -3.2086   -2.4344   -2.8021 C.3       1 <0>        -0.1048
     13 S1         -2.9136   -2.5365   -1.0012 S.3       1 <0>        -0.0452
     14 C10        -1.9840   -3.1037   -4.9179 C.ar      1 <0>        -0.0695
     15 C11        -3.2294   -3.3084   -5.5186 C.ar      1 <0>        -0.0632
     16 C12        -3.2997   -3.7332   -6.8270 C.ar      1 <0>        -0.1509
     17 C13        -2.1339   -3.9579   -7.5512 C.ar      1 <0>         0.1791
     18 C14        -0.8933   -3.7547   -6.9568 C.ar      1 <0>        -0.1269
     19 C15        -0.8146   -3.3254   -5.6502 C.ar      1 <0>        -0.0380
     20 C16         0.3658   -3.9994   -7.7479 C.3       1 <0>        -0.0783
     21 C17         0.1427   -5.1613   -8.7165 C.3       1 <0>        -0.1397
     22 C18        -1.1432   -4.9586   -9.4717 C.2       1 <0>         0.5210
     23 O1         -1.2210   -5.3140  -10.6287 O.2       1 <0>        -0.5210
     24 N4         -2.2076   -4.3882   -8.8786 N.am      1 <0>        -0.6643
     25 Cl1         3.8418    2.3531   -0.0632 Cl        1 <0>        -0.0634
     26 H1         -0.1420    0.4981   -2.0967 H         1 <0>         0.1276
     27 H2          1.9607    1.7736   -2.1178 H         1 <0>         0.1376
     28 H3          2.5106    0.9720    2.0383 H         1 <0>         0.1410
     29 H4          0.4137   -0.3127    2.0791 H         1 <0>         0.1399
     30 H5         -3.6063   -1.4515   -3.0548 H         1 <0>         0.1228
     31 H6         -3.9196   -3.2056   -3.0985 H         1 <0>         0.1475
     32 H7         -4.1355   -3.1341   -4.9574 H         1 <0>         0.1371
     33 H8         -4.2618   -3.8916   -7.2914 H         1 <0>         0.1366
     34 H9          0.1496   -3.1638   -5.1912 H         1 <0>         0.1428
     35 H10         0.6215   -3.1015   -8.3105 H         1 <0>         0.0858
     36 H11         1.1805   -4.2455   -7.0670 H         1 <0>         0.0953
     37 H12         0.9727   -5.2096   -9.4213 H         1 <0>         0.1120
     38 H13         0.0902   -6.0948   -8.1562 H         1 <0>         0.1063
     39 H14        -3.0326   -4.2750   -9.3761 H         1 <0>         0.4132
     40 H15         0.5460   -2.1035   -1.4734 H         1 <0>         0.4388
@<TRIPOS>BOND
     1    1    6 ar
     2    1    2 ar
     3    1   26 1
     4    2    3 ar
     5    2   27 1
     6    3    4 ar
     7    3   25 1
     8    4    5 ar
     9    4   28 1
    10    5    6 ar
    11    5   29 1
    12    6    7 1
    13    7    8 2
    14    8   13 1
    15    8    9 1
    16    9   10 1
    17    9   40 1
    18   10   11 2
    19   11   12 1
    20   11   14 1
    21   12   13 1
    22   12   30 1
    23   12   31 1
    24   14   19 ar
    25   14   15 ar
    26   15   16 ar
    27   15   32 1
    28   16   17 ar
    29   16   33 1
    30   17   24 1
    31   17   18 ar
    32   18   19 ar
    33   18   20 1
    34   19   34 1
    35   20   21 1
    36   20   35 1
    37   20   36 1
    38   21   22 1
    39   21   37 1
    40   21   38 1
    41   22   23 2
    42   22   24 am
    43   24   39 1
@<TRIPOS>MOLECULE
ZINC01068827
   38    41     0     0     0
SMALL
USER_CHARGES

@<TRIPOS>ATOM
      1 C1         -0.0168    1.3891    0.0097 C.ar      1 <0>        -0.0733
      2 C2          1.1701    2.0930    0.0021 C.ar      1 <0>        -0.1096
      3 C3          2.3782    1.4172   -0.0135 C.ar      1 <0>        -0.0224
      4 C4          2.4021    0.0331   -0.0216 C.ar      1 <0>        -0.1095
      5 C5          1.2205   -0.6797   -0.0142 C.ar      1 <0>        -0.0816
      6 C6          0.0021   -0.0041    0.0020 C.ar      1 <0>        -0.0146
      7 C7         -1.2716   -0.7659    0.0106 C.2       1 <0>         0.1596
      8 C8         -1.5069   -1.9822   -0.6375 C.2       1 <0>        -0.2499
      9 C9         -2.7962   -2.3526   -0.3855 C.2       1 <0>         0.2789
     10 N1         -3.3520   -1.4010    0.3928 N.pl3     1 <0>        -0.4422
     11 H1         -4.2620   -1.3987    0.7287 H         1 <0>         0.4501
     12 N2         -2.3802   -0.4179    0.6359 N.2       1 <0>        -0.2448
     13 O1         -3.3379   -3.4968   -0.8729 O.3       1 <0>        -0.2288
     14 C10        -2.4972   -4.4133   -1.3941 C.2       1 <0>         0.4403
     15 C11        -1.2045   -4.1614   -1.6977 C.2       1 <0>        -0.2582
     16 C12        -0.5727   -2.8085   -1.4830 C.3       1 <0>         0.1204
     17 H2          0.3814   -2.9261   -0.9692 H         1 <0>         0.0996
     18 C13        -0.3556   -2.1310   -2.8115 C.ar      1 <0>        -0.0841
     19 C14        -1.4309   -1.8831   -3.6443 C.ar      1 <0>        -0.0709
     20 C15        -1.2331   -1.2614   -4.8626 C.ar      1 <0>        -0.1528
     21 C16         0.0426   -0.8868   -5.2490 C.ar      1 <0>         0.0984
     22 C17         1.1188   -1.1356   -4.4141 C.ar      1 <0>        -0.1492
     23 C18         0.9179   -1.7526   -3.1939 C.ar      1 <0>        -0.0779
     24 F1          0.2372   -0.2794   -6.4400 F         1 <0>        -0.1402
     25 C19        -0.4055   -5.2173   -2.2431 C.1       1 <0>         0.2684
     26 N3          0.2283   -6.0549   -2.6757 N.1       1 <0>        -0.4328
     27 N4         -2.9824   -5.6757   -1.6296 N.pl3     1 <0>        -0.8293
     28 Cl1         3.8680    2.3084   -0.0235 Cl        1 <0>        -0.0644
     29 H3         -0.9588    1.9171    0.0260 H         1 <0>         0.1380
     30 H4          1.1565    3.1729    0.0081 H         1 <0>         0.1386
     31 H5          3.3470   -0.4897   -0.0342 H         1 <0>         0.1401
     32 H6          1.2401   -1.7595   -0.0209 H         1 <0>         0.1386
     33 H7         -2.4258   -2.1757   -3.3428 H         1 <0>         0.1226
     34 H8         -2.0732   -1.0682   -5.5131 H         1 <0>         0.1336
     35 H9          2.1143   -0.8441   -4.7146 H         1 <0>         0.1359
     36 H10         1.7565   -1.9428   -2.5406 H         1 <0>         0.1320
     37 H11        -3.9061   -5.8868   -1.4217 H         1 <0>         0.4124
     38 H12        -2.4017   -6.3565   -2.0039 H         1 <0>         0.4289
@<TRIPOS>BOND
     1    1    6 ar
     2    1    2 ar
     3    1   29 1
     4    2    3 ar
     5    2   30 1
     6    3    4 ar
     7    3   28 1
     8    4    5 ar
     9    4   31 1
    10    5    6 ar
    11    5   32 1
    12    6    7 1
    13    7   12 2
    14    7    8 1
    15    8   16 1
    16    8    9 2
    17    9   10 1
    18    9   13 1
    19   10   11 1
    20   10   12 1
    21   13   14 1
    22   14   15 2
    23   14   27 1
    24   15   16 1
    25   15   25 1
    26   16   17 1
    27   16   18 1
    28   18   23 ar
    29   18   19 ar
    30   19   20 ar
    31   19   33 1
    32   20   21 ar
    33   20   34 1
    34   21   22 ar
    35   21   24 1
    36   22   23 ar
    37   22   35 1
    38   23   36 1
    39   25   26 3
    40   27   37 1
    41   27   38 1
@<TRIPOS>MOLECULE
ZINC09670553
   59    63     0     0     0
SMALL
USER_CHARGES
2-[3-[2-(1-cyclohexenyl)ethyl]-4-oxo-quinazolin-2-yl]sulfanyl-N-(2-oxo-1,3-dihydrobenzoimidazol-5-yl)-acetamide
@<TRIPOS>ATOM
      1 C1         -0.3386   -8.9736    0.6544 C.ar      1 <0>        -0.1398
      2 C2          0.6802   -8.0371    0.5341 C.ar      1 <0>        -0.0687
      3 C3          0.4020   -6.7018    0.4547 C.ar      1 <0>        -0.1139
      4 C4         -0.9267   -6.2682    0.4941 C.ar      1 <0>         0.1684
      5 C5         -1.9607   -7.2243    0.6162 C.ar      1 <0>        -0.2014
      6 C6         -1.6478   -8.5806    0.6956 C.ar      1 <0>        -0.0377
      7 C7         -3.3486   -6.7442    0.6550 C.2       1 <0>         0.5536
      8 O1         -4.2821   -7.5185    0.7593 O.2       1 <0>        -0.5007
      9 N1         -3.5504   -5.4085    0.5707 N.am      1 <0>        -0.5264
     10 C8         -2.4910   -4.5544    0.4549 C.2       1 <0>         0.3557
     11 N2         -1.2461   -4.9609    0.4135 N.2       1 <0>        -0.5348
     12 S1         -2.8138   -2.8255    0.3490 S.3       1 <0>         0.0845
     13 C9         -1.1215   -2.1973    0.2162 C.3       1 <0>        -0.1533
     14 C10        -1.1504   -0.6943    0.1110 C.2       1 <0>         0.5328
     15 O2         -2.2109   -0.1056    0.1245 O.2       1 <0>        -0.5021
     16 N3          0.0021   -0.0041    0.0020 N.am      1 <0>        -0.6616
     17 C11        -0.0164    1.3966    0.0155 C.ar      1 <0>         0.1548
     18 C12         0.9137    2.1099   -0.7323 C.ar      1 <0>        -0.1276
     19 C13         0.8971    3.4901   -0.7277 C.ar      1 <0>        -0.0821
     20 C14        -0.0425    4.1684    0.0339 C.ar      1 <0>         0.0776
     21 C15        -0.9743    3.4549    0.7906 C.ar      1 <0>         0.1115
     22 C16        -0.9586    2.0689    0.7793 C.ar      1 <0>        -0.1074
     23 N4         -1.7731    4.3953    1.4371 N.am      1 <0>        -0.6400
     24 H1         -2.5104    4.1980    2.0357 H         1 <0>         0.4374
     25 C17        -1.3476    5.6245    1.0902 C.2       1 <0>         0.6851
     26 O3         -1.8322    6.6700    1.4813 O.2       1 <0>        -0.5523
     27 N5         -0.3049    5.5218    0.2448 N.am      1 <0>        -0.6410
     28 H2          0.1811    6.2627   -0.1500 H         1 <0>         0.4369
     29 C18        -4.9145   -4.8753    0.6045 C.3       1 <0>         0.0941
     30 C19        -5.4646   -4.7912   -0.8207 C.3       1 <0>        -0.1007
     31 C20        -6.8678   -4.2427   -0.7860 C.2       1 <0>        -0.1234
     32 C21        -7.0270   -2.9710   -0.9676 C.2       1 <0>        -0.1414
     33 C22        -8.3587   -2.2795   -0.9510 C.3       1 <0>        -0.0915
     34 C23        -9.4853   -3.3014   -1.1189 C.3       1 <0>        -0.1223
     35 C24        -9.2544   -4.4459   -0.1241 C.3       1 <0>        -0.1200
     36 C25        -7.9941   -5.2057   -0.5492 C.3       1 <0>        -0.0840
     37 H3         -0.0941  -10.0237    0.7158 H         1 <0>         0.1338
     38 H4          1.7073   -8.3693    0.5031 H         1 <0>         0.1348
     39 H5          1.2043   -5.9848    0.3621 H         1 <0>         0.1388
     40 H6         -2.4337   -9.3155    0.7894 H         1 <0>         0.1377
     41 H7         -0.6477   -2.6147   -0.6722 H         1 <0>         0.1355
     42 H8         -0.5553   -2.4888    1.1009 H         1 <0>         0.1361
     43 H9          0.8443   -0.4772   -0.0858 H         1 <0>         0.4187
     44 H10         1.6488    1.5823   -1.3219 H         1 <0>         0.1403
     45 H11         1.6179    4.0412   -1.3135 H         1 <0>         0.1396
     46 H12        -1.6778    1.5143    1.3638 H         1 <0>         0.1448
     47 H13        -5.5472   -5.5334    1.1999 H         1 <0>         0.1079
     48 H14        -4.9047   -3.8803    1.0495 H         1 <0>         0.0995
     49 H15        -4.8318   -4.1330   -1.4162 H         1 <0>         0.0782
     50 H16        -5.4743   -5.7862   -1.2657 H         1 <0>         0.0774
     51 H17        -6.1466   -2.3702   -1.1422 H         1 <0>         0.1070
     52 H18        -8.4830   -1.7574   -0.0023 H         1 <0>         0.0751
     53 H19        -8.4021   -1.5593   -1.7681 H         1 <0>         0.0723
     54 H20       -10.4446   -2.8260   -0.9143 H         1 <0>         0.0650
     55 H21        -9.4764   -3.6927   -2.1362 H         1 <0>         0.0639
     56 H22        -9.1206   -4.0388    0.8781 H         1 <0>         0.0648
     57 H23       -10.1116   -5.1191   -0.1347 H         1 <0>         0.0656
     58 H24        -8.1943   -5.7600   -1.4661 H         1 <0>         0.0735
     59 H25        -7.7125   -5.9042    0.2388 H         1 <0>         0.0716
@<TRIPOS>BOND
     1    1    6 ar
     2    1    2 ar
     3    1   37 1
     4    2    3 ar
     5    2   38 1
     6    3    4 ar
     7    3   39 1
     8    4   11 1
     9    4    5 ar
    10    5    6 ar
    11    5    7 1
    12    6   40 1
    13    7    8 2
    14    7    9 am
    15    9   10 1
    16    9   29 1
    17   10   11 2
    18   10   12 1
    19   12   13 1
    20   13   14 1
    21   13   41 1
    22   13   42 1
    23   14   15 2
    24   14   16 am
    25   16   17 1
    26   16   43 1
    27   17   22 ar
    28   17   18 ar
    29   18   19 ar
    30   18   44 1
    31   19   20 ar
    32   19   45 1
    33   20   27 1
    34   20   21 ar
    35   21   22 ar
    36   21   23 1
    37   22   46 1
    38   23   24 1
    39   23   25 am
    40   25   26 2
    41   25   27 am
    42   27   28 1
    43   29   30 1
    44   29   47 1
    45   29   48 1
    46   30   31 1
    47   30   49 1
    48   30   50 1
    49   31   36 1
    50   31   32 2
    51   32   33 1
    52   32   51 1
    53   33   34 1
    54   33   52 1
    55   33   53 1
    56   34   35 1
    57   34   54 1
    58   34   55 1
    59   35   36 1
    60   35   56 1
    61   35   57 1
    62   36   58 1
    63   36   59 1
@<TRIPOS>MOLECULE
ZINC16612380
   64    66     0     0     0
SMALL
USER_CHARGES
2-methoxyethyl (4R)-4-[3-[(2,4-dimethylphenyl)carbamoylamino]phenyl]-1,6-dimethyl-2-thioxo-3,4-dihydropyrimidine-5-carboxylate
@<TRIPOS>ATOM
      1 C1         -5.3875    1.3165   -8.6336 C.3       1 <0>        -0.1146
      2 C2         -4.9998    1.9133   -7.3052 C.ar      1 <0>        -0.0960
      3 C3         -4.5768    1.0912   -6.2766 C.ar      1 <0>        -0.1067
      4 C4         -4.2163    1.6354   -5.0597 C.ar      1 <0>        -0.1158
      5 C5         -4.2885    3.0089   -4.8661 C.ar      1 <0>         0.1515
      6 C6         -4.7131    3.8314   -5.9009 C.ar      1 <0>        -0.1097
      7 C7         -5.0674    3.2814   -7.1175 C.ar      1 <0>        -0.1026
      8 C8         -4.7880    5.3227   -5.6969 C.3       1 <0>        -0.1152
      9 N1         -3.9284    3.5630   -3.6326 N.am      1 <0>        -0.6778
     10 C9         -4.1085    2.8573   -2.4985 C.2       1 <0>         0.7035
     11 O1         -4.5128    1.7119   -2.5530 O.2       1 <0>        -0.5511
     12 N2         -3.8405    3.4213   -1.3042 N.am      1 <0>        -0.6809
     13 C10        -3.9457    2.6629   -0.1329 C.ar      1 <0>         0.1563
     14 C11        -4.9371    1.6972   -0.0158 C.ar      1 <0>        -0.1041
     15 C12        -5.0380    0.9501    1.1412 C.ar      1 <0>        -0.1023
     16 C13        -4.1499    1.1590    2.1806 C.ar      1 <0>        -0.1087
     17 C14        -3.1652    2.1232    2.0693 C.ar      1 <0>        -0.0976
     18 C15        -3.0590    2.8738    0.9145 C.ar      1 <0>        -0.0980
     19 C16        -2.2030    2.3511    3.2064 C.3       1 <0>         0.2212
     20 H1         -1.7167    3.3128    3.0428 H         1 <0>         0.1035
     21 C17        -1.1399    1.2732    3.1420 C.2       1 <0>        -0.2593
     22 C18        -0.9812    0.4814    4.2251 C.2       1 <0>         0.2378
     23 N3         -1.7563    0.6442    5.3363 N.pl3     1 <0>        -0.4945
     24 C19        -2.7121    1.5755    5.4454 C.2       1 <0>         0.5480
     25 S1         -3.6125    1.6717    6.8983 S.2       1 <0>        -0.5885
     26 N4         -2.9883    2.4400    4.4490 N.pl3     1 <0>        -0.6449
     27 C20        -1.5296   -0.2501    6.4743 C.3       1 <0>         0.0461
     28 C21         0.0686   -0.5996    4.2055 C.3       1 <0>        -0.1292
     29 C22        -0.3374    1.1056    1.9898 C.2       1 <0>         0.5363
     30 O2          0.5136    0.2361    1.9622 O.2       1 <0>        -0.5112
     31 O3         -0.5152    1.9098    0.9208 O.3       1 <0>        -0.3328
     32 C23         0.3306    1.6841   -0.2087 C.3       1 <0>         0.0714
     33 C24        -0.0159    2.6845   -1.3132 C.3       1 <0>         0.0631
     34 O4          0.2902    4.0082   -0.8703 O.3       1 <0>        -0.3819
     35 C25         0.0023    5.0244   -1.8328 C.3       1 <0>         0.0317
     36 H2         -4.5104    1.2651   -9.2787 H         1 <0>         0.0702
     37 H3         -5.7843    0.3131   -8.4792 H         1 <0>         0.0665
     38 H4         -6.1482    1.9397   -9.1037 H         1 <0>         0.0658
     39 H5         -4.5248    0.0229   -6.4264 H         1 <0>         0.1248
     40 H6         -3.8825    0.9933   -4.2580 H         1 <0>         0.1464
     41 H7         -5.3977    3.9207   -7.9229 H         1 <0>         0.1258
     42 H8         -3.8353    5.7753   -5.9721 H         1 <0>         0.0710
     43 H9         -5.5802    5.7355   -6.3214 H         1 <0>         0.0728
     44 H10        -5.0025    5.5358   -4.6497 H         1 <0>         0.0613
     45 H11        -3.5493    4.4550   -3.5938 H         1 <0>         0.4062
     46 H12        -3.5746    4.3529   -1.2565 H         1 <0>         0.4070
     47 H13        -5.6281    1.5305   -0.8289 H         1 <0>         0.1411
     48 H14        -5.8084    0.1988    1.2327 H         1 <0>         0.1276
     49 H15        -4.2283    0.5706    3.0828 H         1 <0>         0.1132
     50 H16        -2.2873    3.6242    0.8267 H         1 <0>         0.1347
     51 H17        -3.6853    3.1071    4.5493 H         1 <0>         0.4474
     52 H18        -0.7346    0.1539    7.1012 H         1 <0>         0.0871
     53 H19        -2.4459   -0.3341    7.0587 H         1 <0>         0.1278
     54 H20        -1.2395   -1.2356    6.1098 H         1 <0>         0.0948
     55 H21         1.0367   -0.1616    3.9624 H         1 <0>         0.1120
     56 H22         0.1202   -1.0738    5.1856 H         1 <0>         0.0810
     57 H23        -0.1917   -1.3453    3.4544 H         1 <0>         0.1062
     58 H24         0.1811    0.6694   -0.5775 H         1 <0>         0.0836
     59 H25         1.3721    1.8140    0.0855 H         1 <0>         0.0786
     60 H26         0.5665    2.4563   -2.2059 H         1 <0>         0.0720
     61 H27        -1.0787    2.6157   -1.5454 H         1 <0>         0.0591
     62 H28         0.5851    4.8447   -2.7362 H         1 <0>         0.0434
     63 H29        -1.0601    5.0041   -2.0757 H         1 <0>         0.0356
     64 H30         0.2623    5.9994   -1.4206 H         1 <0>         0.0898
@<TRIPOS>BOND
     1    1    2 1
     2    1   36 1
     3    1   37 1
     4    1   38 1
     5    2    7 ar
     6    2    3 ar
     7    3    4 ar
     8    3   39 1
     9    4    5 ar
    10    4   40 1
    11    5    6 ar
    12    5    9 1
    13    6    7 ar
    14    6    8 1
    15    7   41 1
    16    8   42 1
    17    8   43 1
    18    8   44 1
    19    9   10 am
    20    9   45 1
    21   10   11 2
    22   10   12 am
    23   12   13 1
    24   12   46 1
    25   13   18 ar
    26   13   14 ar
    27   14   15 ar
    28   14   47 1
    29   15   16 ar
    30   15   48 1
    31   16   17 ar
    32   16   49 1
    33   17   18 ar
    34   17   19 1
    35   18   50 1
    36   19   20 1
    37   19   26 1
    38   19   21 1
    39   21   22 2
    40   21   29 1
    41   22   23 1
    42   22   28 1
    43   23   24 1
    44   23   27 1
    45   24   25 2
    46   24   26 1
    47   26   51 1
    48   27   52 1
    49   27   53 1
    50   27   54 1
    51   28   55 1
    52   28   56 1
    53   28   57 1
    54   29   30 2
    55   29   31 1
    56   31   32 1
    57   32   33 1
    58   32   58 1
    59   32   59 1
    60   33   34 1
    61   33   60 1
    62   33   61 1
    63   34   35 1
    64   35   62 1
    65   35   63 1
    66   35   64 1
@<TRIPOS>MOLECULE
ZINC32986897
   56    59     0     0     0
SMALL
USER_CHARGES
[2-(3-ethylanilino)-2-oxo-ethyl] 4-[(3R)-1,1-dioxo-3,4-dihydro-2H-benzo[e][1,2,4]thiadiazin-3-yl]benzoate
@<TRIPOS>ATOM
      1 C1          5.0366   -8.0988   -9.2615 C.3       1 <0>        -0.1478
      2 C2          3.6200   -8.6395   -9.0571 C.3       1 <0>        -0.0888
      3 C3          2.6681   -7.9130   -9.9722 C.ar      1 <0>        -0.0602
      4 C4          2.4227   -8.4017  -11.2425 C.ar      1 <0>        -0.1332
      5 C5          1.5509   -7.7377  -12.0854 C.ar      1 <0>        -0.0969
      6 C6          0.9220   -6.5834  -11.6608 C.ar      1 <0>        -0.1505
      7 C7          1.1659   -6.0904  -10.3859 C.ar      1 <0>         0.1534
      8 C8          2.0463   -6.7570   -9.5435 C.ar      1 <0>        -0.1213
      9 N1          0.5305   -4.9214   -9.9528 N.am      1 <0>        -0.6833
     10 C9          0.1947   -4.7780   -8.6554 C.2       1 <0>         0.5164
     11 O1          0.3557   -5.6983   -7.8820 O.2       1 <0>        -0.4957
     12 C10        -0.3808   -3.4742   -8.1657 C.3       1 <0>         0.0488
     13 O2         -0.6577   -3.5710   -6.7437 O.3       1 <0>        -0.3261
     14 C11        -1.1795   -2.4820   -6.1466 C.2       1 <0>         0.5138
     15 O3         -1.3974   -1.4790   -6.7962 O.2       1 <0>        -0.5027
     16 C12        -1.4869   -2.5077   -4.7019 C.ar      1 <0>        -0.1114
     17 C13        -2.0279   -1.3807   -4.0799 C.ar      1 <0>        -0.0637
     18 C14        -2.3121   -1.4114   -2.7304 C.ar      1 <0>        -0.0969
     19 C15        -2.0619   -2.5553   -1.9933 C.ar      1 <0>        -0.1197
     20 C16        -1.5210   -3.6739   -2.6023 C.ar      1 <0>        -0.0640
     21 C17        -1.2374   -3.6589   -3.9522 C.ar      1 <0>        -0.0569
     22 C18        -2.3741   -2.5810   -0.5192 C.3       1 <0>         0.4217
     23 H1         -3.4092   -2.9133   -0.3515 H         1 <0>         0.1386
     24 N2         -2.2135   -1.2406    0.0390 N.pl3     1 <0>        -0.7688
     25 C19        -0.9779   -0.6153    0.1833 C.ar      1 <0>         0.2922
     26 C20        -0.9354    0.7745    0.2840 C.ar      1 <0>        -0.1972
     27 C21         0.2696    1.4206    0.4643 C.ar      1 <0>        -0.0300
     28 C22         1.4444    0.6953    0.5460 C.ar      1 <0>        -0.1783
     29 C23         1.4113   -0.6834    0.4398 C.ar      1 <0>         0.0123
     30 C24         0.2088   -1.3323    0.2522 C.ar      1 <0>        -0.7208
     31 S1          0.1751   -3.0911    0.0803 S.o2      1 <0>         2.6862
     32 O4          0.6054   -3.3874   -1.2412 O.2       1 <0>        -0.9397
     33 O5          0.8027   -3.6332    1.2342 O.2       1 <0>        -0.9592
     34 N3         -1.4409   -3.4958    0.1689 N.pl3     1 <0>        -1.1246
     35 H2          5.7314   -8.6291   -8.5936 H         1 <0>         0.0599
     36 H3          5.0554   -7.0234   -9.0311 H         1 <0>         0.0552
     37 H4          5.3415   -8.2553  -10.3068 H         1 <0>         0.0564
     38 H5          3.6012   -9.7149   -9.2875 H         1 <0>         0.0744
     39 H6          3.3151   -8.4831   -8.0118 H         1 <0>         0.0748
     40 H7          2.9134   -9.3038  -11.5769 H         1 <0>         0.1230
     41 H8          1.3616   -8.1216  -13.0769 H         1 <0>         0.1268
     42 H9          0.2416   -6.0647  -12.3200 H         1 <0>         0.1254
     43 H10         2.2418   -6.3734   -8.5530 H         1 <0>         0.1330
     44 H11         0.3051   -4.1195  -10.6712 H         1 <0>         0.4377
     45 H12         0.3419   -2.6644   -8.3442 H         1 <0>         0.1091
     46 H13        -1.3138   -3.2589   -8.7071 H         1 <0>         0.1080
     47 H14        -2.2230   -0.4870   -4.6540 H         1 <0>         0.1395
     48 H15        -2.7306   -0.5404   -2.2480 H         1 <0>         0.1347
     49 H16        -1.3240   -4.5620   -2.0202 H         1 <0>         0.1370
     50 H17        -0.8191   -4.5340   -4.4271 H         1 <0>         0.1438
     51 H18        -3.0959   -0.6734    0.3703 H         1 <0>         0.4362
     52 H19        -1.8484    1.3474    0.2160 H         1 <0>         0.1313
     53 H20         0.2960    2.4975    0.5416 H         1 <0>         0.1307
     54 H21         2.3856    1.2044    0.6924 H         1 <0>         0.1316
     55 H22         2.3273   -1.2518    0.5034 H         1 <0>         0.1301
     56 H23        -1.8304   -4.2827    0.8315 H         1 <0>         0.4555
@<TRIPOS>BOND
     1    1    2 1
     2    1   35 1
     3    1   36 1
     4    1   37 1
     5    2    3 1
     6    2   38 1
     7    2   39 1
     8    3    8 ar
     9    3    4 ar
    10    4    5 ar
    11    4   40 1
    12    5    6 ar
    13    5   41 1
    14    6    7 ar
    15    6   42 1
    16    7    8 ar
    17    7    9 1
    18    8   43 1
    19    9   10 am
    20    9   44 1
    21   10   11 2
    22   10   12 1
    23   12   13 1
    24   12   45 1
    25   12   46 1
    26   13   14 1
    27   14   15 2
    28   14   16 1
    29   16   21 ar
    30   16   17 ar
    31   17   18 ar
    32   17   47 1
    33   18   19 ar
    34   18   48 1
    35   19   20 ar
    36   19   22 1
    37   20   21 ar
    38   20   49 1
    39   21   50 1
    40   22   23 1
    41   22   34 1
    42   22   24 1
    43   24   25 1
    44   24   51 1
    45   25   30 ar
    46   25   26 ar
    47   26   27 ar
    48   26   52 1
    49   27   28 ar
    50   27   53 1
    51   28   29 ar
    52   28   54 1
    53   29   30 ar
    54   29   55 1
    55   30   31 1
    56   31   32 2
    57   31   33 2
    58   31   34 1
    59   34   56 1
@<TRIPOS>MOLECULE
ZINC40688670
   51    53     0     0     0
SMALL
USER_CHARGES

@<TRIPOS>ATOM
      1 C1         -0.1857    0.7297    0.8702 C.3       1 <0>        -0.1176
      2 C2          0.2458   -0.6968    0.6472 C.ar      1 <0>        -0.1125
      3 C3          0.0962   -1.2777   -0.5970 C.ar      1 <0>        -0.0702
      4 C4          0.4920   -2.5862   -0.8032 C.ar      1 <0>        -0.0967
      5 C5          1.0390   -3.3188    0.2362 C.ar      1 <0>         0.0001
      6 C6          1.1913   -2.7433    1.4833 C.ar      1 <0>        -0.1078
      7 C7          0.7995   -1.4268    1.6912 C.ar      1 <0>         0.1899
      8 N1          0.9574   -0.8397    2.9495 N.pl3     1 <0>        -0.6488
      9 C8          0.9297   -1.6295    4.0936 C.ar      1 <0>         0.3714
     10 C9          1.2116   -1.0761    5.3440 C.ar      1 <0>         0.0894
     11 C10         1.1694   -1.9136    6.4601 C.ar      1 <0>         0.3492
     12 N2          0.8644   -3.1981    6.2911 N.ar      1 <0>        -0.5084
     13 C11         0.6048   -3.6805    5.0927 C.ar      1 <0>         0.2949
     14 N3          0.6288   -2.9236    4.0144 N.ar      1 <0>        -0.5220
     15 N4          1.4421   -1.4140    7.7280 N.pl3     1 <0>        -0.6340
     16 C12         0.3551   -0.8882    8.5575 C.3       1 <0>         0.2368
     17 C13        -0.2075   -1.9749    9.3757 C.1       1 <0>         0.1781
     18 N5         -0.6417   -2.8136   10.0071 N.1       1 <0>        -0.4075
     19 C14         2.8166   -1.4132    8.2349 C.3       1 <0>         0.2352
     20 C15         3.4314   -0.0995    7.9837 C.1       1 <0>         0.1770
     21 N6          3.9059    0.9143    7.7898 N.1       1 <0>        -0.4105
     22 N7          1.5293    0.2853    5.4753 N.pl3     1 <0>        -0.8604
     23 Cl1         1.5336   -4.9619   -0.0271 Cl        1 <0>        -0.0546
     24 C16         0.3271   -3.2164   -2.1621 C.3       1 <0>         0.0927
     25 H1          0.7808   -4.2075   -2.1605 H         1 <0>         0.1361
     26 C17         0.9863   -2.3767   -3.1757 C.1       1 <0>         0.2098
     27 N8          1.4950   -1.7287   -3.9578 N.1       1 <0>        -0.4089
     28 C18        -1.1398   -3.3361   -2.4857 C.ar      1 <0>        -0.0772
     29 C19        -1.8800   -2.2029   -2.7669 C.ar      1 <0>        -0.0945
     30 C20        -3.2255   -2.3120   -3.0637 C.ar      1 <0>        -0.1057
     31 C21        -3.8315   -3.5556   -3.0795 C.ar      1 <0>        -0.0279
     32 C22        -3.0902   -4.6893   -2.7981 C.ar      1 <0>        -0.1052
     33 C23        -1.7435   -4.5795   -2.5069 C.ar      1 <0>        -0.0847
     34 Cl2        -5.5215   -3.6934   -3.4518 Cl        1 <0>        -0.0646
     35 H2          0.6471    1.3991    0.6546 H         1 <0>         0.0745
     36 H3         -1.0207    0.9642    0.2099 H         1 <0>         0.0765
     37 H4         -0.4956    0.8577    1.9073 H         1 <0>         0.0653
     38 H5         -0.3309   -0.7091   -1.4098 H         1 <0>         0.1342
     39 H6          1.6178   -3.3150    2.2942 H         1 <0>         0.1593
     40 H7          1.0862    0.1187    3.0248 H         1 <0>         0.4177
     41 H8          0.3612   -4.7278    4.9917 H         1 <0>         0.2010
     42 H9          0.7419   -0.1052    9.2098 H         1 <0>         0.1236
     43 H10        -0.4239   -0.4753    7.9166 H         1 <0>         0.1147
     44 H11         2.8087   -1.6116    9.3067 H         1 <0>         0.1236
     45 H12         3.3919   -2.1868    7.7264 H         1 <0>         0.1214
     46 H13         1.6453    0.8347    4.6844 H         1 <0>         0.3962
     47 H14         1.6327    0.6764    6.3569 H         1 <0>         0.4050
     48 H15        -1.4070   -1.2321   -2.7542 H         1 <0>         0.1299
     49 H16        -3.8038   -1.4265   -3.2830 H         1 <0>         0.1369
     50 H17        -3.5628   -5.6604   -2.8100 H         1 <0>         0.1395
     51 H18        -1.1637   -5.4649   -2.2919 H         1 <0>         0.1399
@<TRIPOS>BOND
     1    1    2 1
     2    1   35 1
     3    1   36 1
     4    1   37 1
     5    2    7 ar
     6    2    3 ar
     7    3    4 ar
     8    3   38 1
     9    4    5 ar
    10    4   24 1
    11    5    6 ar
    12    5   23 1
    13    6    7 ar
    14    6   39 1
    15    7    8 1
    16    8    9 1
    17    8   40 1
    18    9   14 ar
    19    9   10 ar
    20   10   11 ar
    21   10   22 1
    22   11   12 ar
    23   11   15 1
    24   12   13 ar
    25   13   14 ar
    26   13   41 1
    27   15   16 1
    28   15   19 1
    29   16   17 1
    30   16   42 1
    31   16   43 1
    32   17   18 3
    33   19   20 1
    34   19   44 1
    35   19   45 1
    36   20   21 3
    37   22   46 1
    38   22   47 1
    39   24   25 1
    40   24   26 1
    41   24   28 1
    42   26   27 3
    43   28   33 ar
    44   28   29 ar
    45   29   30 ar
    46   29   48 1
    47   30   31 ar
    48   30   49 1
    49   31   32 ar
    50   31   34 1
    51   32   33 ar
    52   32   50 1
    53   33   51 1
@<TRIPOS>MOLECULE
ZINC58881320
   54    56     0     0     0
SMALL
USER_CHARGES

@<TRIPOS>ATOM
      1 C1         -1.2037    1.2465    0.1813 C.3       1 <0>        -0.1212
      2 C2         -0.5603   -0.1126    0.0814 C.ar      1 <0>        -0.0871
      3 C3         -0.5610   -0.7909   -1.1217 C.ar      1 <0>        -0.0937
      4 C4          0.0300   -2.0386   -1.2143 C.ar      1 <0>        -0.0383
      5 C5          0.6234   -2.6106   -0.1022 C.ar      1 <0>        -0.0975
      6 C6          0.6270   -1.9371    1.1031 C.ar      1 <0>        -0.1013
      7 C7          0.0390   -0.6818    1.1977 C.ar      1 <0>         0.1371
      8 N1          0.0458    0.0046    2.4152 N.am      1 <0>        -0.6366
      9 C8         -0.0596   -0.6765    3.5734 C.2       1 <0>         0.5175
     10 O1         -0.0755   -1.8905    3.5645 O.2       1 <0>        -0.4942
     11 C9         -0.1566    0.0608    4.8656 C.2       1 <0>         0.5307
     12 O2         -0.1407    1.2752    4.8745 O.2       1 <0>        -0.4752
     13 N2         -0.2620   -0.6204    6.0238 N.am      1 <0>        -0.5570
     14 N3         -0.3532    0.0724    7.2381 N.2       1 <0>        -0.2378
     15 C10        -0.4548   -0.5842    8.3546 C.2       1 <0>         0.1337
     16 C11        -0.5507    0.1444    9.6316 C.ar      1 <0>        -0.0997
     17 C12        -0.5383    1.5423    9.6439 C.ar      1 <0>        -0.0323
     18 C13        -0.6282    2.2192   10.8405 C.ar      1 <0>        -0.1503
     19 C14        -0.7305    1.5149   12.0336 C.ar      1 <0>         0.1495
     20 C15        -0.7432    0.1257   12.0263 C.ar      1 <0>        -0.2162
     21 C16        -0.6601   -0.5599   10.8342 C.ar      1 <0>        -0.0414
     22 O3         -0.8180    2.1866   13.2109 O.3       1 <0>        -0.2861
     23 C17        -0.9208    1.4008   14.4001 C.3       1 <0>         0.0416
     24 C18        -1.0075    2.3112   15.5978 C.2       1 <0>         0.5149
     25 O4         -0.9836    3.5146   15.4479 O.2       1 <0>        -0.4883
     26 N4         -1.1116    1.7883   16.8356 N.am      1 <0>        -0.6665
     27 C19        -1.3148    2.6296   17.9364 C.ar      1 <0>         0.1360
     28 C20        -0.8953    2.2351   19.1998 C.ar      1 <0>        -0.1180
     29 C21        -1.0967    3.0664   20.2842 C.ar      1 <0>        -0.1313
     30 C22        -1.7170    4.2925   20.1121 C.ar      1 <0>         0.0834
     31 C23        -2.1362    4.6878   18.8529 C.ar      1 <0>        -0.1303
     32 C24        -1.9311    3.8621   17.7649 C.ar      1 <0>        -0.1004
     33 F1         -1.9139    5.1038   21.1742 F         1 <0>        -0.1381
     34 Cl1         0.0268   -2.8886   -2.7280 Cl        1 <0>        -0.0645
     35 H1         -0.4662    2.0154   -0.0488 H         1 <0>         0.0799
     36 H2         -2.0290    1.3108   -0.5278 H         1 <0>         0.0785
     37 H3         -1.5813    1.3963    1.1928 H         1 <0>         0.0695
     38 H4         -1.0235   -0.3471   -1.9910 H         1 <0>         0.1410
     39 H5          1.0836   -3.5847   -0.1773 H         1 <0>         0.1400
     40 H6          1.0901   -2.3838    1.9705 H         1 <0>         0.1498
     41 H7          0.1264    0.9712    2.4266 H         1 <0>         0.4266
     42 H8         -0.2747   -1.5903    6.0166 H         1 <0>         0.4002
     43 H9         -0.4690   -1.6640    8.3466 H         1 <0>         0.1263
     44 H10        -0.4581    2.0906    8.7170 H         1 <0>         0.1451
     45 H11        -0.6187    3.2991   10.8511 H         1 <0>         0.1399
     46 H12        -0.8226   -0.4176   12.9563 H         1 <0>         0.1345
     47 H13        -0.6746   -1.6398   10.8291 H         1 <0>         0.1352
     48 H14        -1.8157    0.7806   14.3495 H         1 <0>         0.1023
     49 H15        -0.0415    0.7631   14.4913 H         1 <0>         0.1009
     50 H16        -1.0458    0.8290   16.9640 H         1 <0>         0.4154
     51 H17        -0.4121    1.2787   19.3345 H         1 <0>         0.1378
     52 H18        -0.7705    2.7599   21.2670 H         1 <0>         0.1416
     53 H19        -2.6201    5.6442   18.7209 H         1 <0>         0.1411
     54 H20        -2.2541    4.1727   16.7823 H         1 <0>         0.1532
@<TRIPOS>BOND
     1    1    2 1
     2    1   35 1
     3    1   36 1
     4    1   37 1
     5    2    7 ar
     6    2    3 ar
     7    3    4 ar
     8    3   38 1
     9    4    5 ar
    10    4   34 1
    11    5    6 ar
    12    5   39 1
    13    6    7 ar
    14    6   40 1
    15    7    8 1
    16    8    9 am
    17    8   41 1
    18    9   10 2
    19    9   11 1
    20   11   12 2
    21   11   13 am
    22   13   14 1
    23   13   42 1
    24   14   15 2
    25   15   16 1
    26   15   43 1
    27   16   21 ar
    28   16   17 ar
    29   17   18 ar
    30   17   44 1
    31   18   19 ar
    32   18   45 1
    33   19   20 ar
    34   19   22 1
    35   20   21 ar
    36   20   46 1
    37   21   47 1
    38   22   23 1
    39   23   24 1
    40   23   48 1
    41   23   49 1
    42   24   25 2
    43   24   26 am
    44   26   27 1
    45   26   50 1
    46   27   32 ar
    47   27   28 ar
    48   28   29 ar
    49   28   51 1
    50   29   30 ar
    51   29   52 1
    52   30   31 ar
    53   30   33 1
    54   31   32 ar
    55   31   53 1
    56   32   54 1
@<TRIPOS>MOLECULE
ZINC04888455
   57    59     0     0     0
SMALL
USER_CHARGES
4-cyclohexylcarbonylamino-N-(3,5-dimethylphenyl)-piperidine-1-carboxamide
@<TRIPOS>ATOM
      1 C1          4.6517    1.5249    1.3727 C.3       1 <0>        -0.1142
      2 C2          3.4336    2.0291    0.6426 C.ar      1 <0>        -0.0638
      3 C3          3.4859    3.2300   -0.0409 C.ar      1 <0>        -0.1371
      4 C4          2.3703    3.6961   -0.7120 C.ar      1 <0>        -0.0641
      5 C5          1.1999    2.9629   -0.7017 C.ar      1 <0>        -0.1252
      6 C6          1.1442    1.7565   -0.0162 C.ar      1 <0>         0.1673
      7 C7          2.2646    1.2937    0.6612 C.ar      1 <0>        -0.1545
      8 N1         -0.0404    1.0114   -0.0034 N.am      1 <0>        -0.6864
      9 C8         -1.2320    1.6406    0.0165 C.2       1 <0>         0.7091
     10 O1         -1.2809    2.8528   -0.0651 O.2       1 <0>        -0.5692
     11 N2         -2.3696    0.9262    0.1268 N.am      1 <0>        -0.6263
     12 C9         -2.3233   -0.5273    0.3364 C.3       1 <0>         0.1123
     13 C10        -3.1638   -0.8692    1.5760 C.3       1 <0>        -0.1435
     14 C11        -4.5753   -0.3045    1.3998 C.3       1 <0>         0.1456
     15 C12        -4.5048    1.2188    1.2712 C.3       1 <0>        -0.1423
     16 C13        -3.6794    1.5852    0.0337 C.3       1 <0>         0.1325
     17 N3         -5.3916   -0.6588    2.5635 N.am      1 <0>        -0.7286
     18 C14        -6.0136   -1.8535    2.6118 C.2       1 <0>         0.5189
     19 O2         -5.8975   -2.6353    1.6919 O.2       1 <0>        -0.5358
     20 C15        -6.8532   -2.2180    3.8090 C.3       1 <0>        -0.1066
     21 C16        -5.9819   -2.2038    5.0665 C.3       1 <0>        -0.1094
     22 C17        -6.8344   -2.5739    6.2819 C.3       1 <0>        -0.1186
     23 C18        -7.4231   -3.9723    6.0852 C.3       1 <0>        -0.1232
     24 C19        -8.2945   -3.9865    4.8276 C.3       1 <0>        -0.1209
     25 C20        -7.4420   -3.6164    3.6122 C.3       1 <0>        -0.0992
     26 C21         2.4319    5.0052   -1.4560 C.3       1 <0>        -0.1143
     27 H1          4.6424    1.8990    2.3965 H         1 <0>         0.0712
     28 H2          4.6433    0.4350    1.3841 H         1 <0>         0.0660
     29 H3          5.5504    1.8760    0.8657 H         1 <0>         0.0681
     30 H4          4.4000    3.8050   -0.0508 H         1 <0>         0.1223
     31 H5          0.3291    3.3273   -1.2263 H         1 <0>         0.1402
     32 H6          2.2231    0.3580    1.1989 H         1 <0>         0.1223
     33 H7         -0.0038    0.0421   -0.0128 H         1 <0>         0.4057
     34 H8         -2.7318   -1.0356   -0.5370 H         1 <0>         0.0784
     35 H9         -1.2915   -0.8410    0.4949 H         1 <0>         0.0797
     36 H10        -2.7047   -0.4308    2.4621 H         1 <0>         0.0708
     37 H11        -3.2169   -1.9517    1.6915 H         1 <0>         0.0830
     38 H12        -5.0244   -0.7245    0.4998 H         1 <0>         0.0919
     39 H13        -4.0330    1.6375    2.1602 H         1 <0>         0.0748
     40 H14        -5.5122    1.6224    1.1691 H         1 <0>         0.0857
     41 H15        -3.5427    2.6658   -0.0075 H         1 <0>         0.1024
     42 H16        -4.1952    1.2476   -0.8652 H         1 <0>         0.0726
     43 H17        -5.4844   -0.0336    3.2993 H         1 <0>         0.4007
     44 H18        -7.6619   -1.4955    3.9191 H         1 <0>         0.0971
     45 H19        -5.1732   -2.9264    4.9564 H         1 <0>         0.0680
     46 H20        -5.5624   -1.2076    5.2067 H         1 <0>         0.0651
     47 H21        -7.6430   -1.8514    6.3921 H         1 <0>         0.0647
     48 H22        -6.2136   -2.5638    7.1778 H         1 <0>         0.0663
     49 H23        -8.0305   -4.2359    6.9510 H         1 <0>         0.0638
     50 H24        -6.6145   -4.6948    5.9750 H         1 <0>         0.0629
     51 H25        -9.1032   -3.2639    4.9378 H         1 <0>         0.0627
     52 H26        -8.7140   -4.9827    4.6875 H         1 <0>         0.0665
     53 H27        -8.0628   -3.6265    2.7163 H         1 <0>         0.0693
     54 H28        -6.6334   -4.3389    3.5021 H         1 <0>         0.0696
     55 H29         2.1435    5.8167   -0.7879 H         1 <0>         0.0721
     56 H30         3.4479    5.1725   -1.8136 H         1 <0>         0.0670
     57 H31         1.7487    4.9732   -2.3047 H         1 <0>         0.0668
@<TRIPOS>BOND
     1    1    2 1
     2    1   27 1
     3    1   28 1
     4    1   29 1
     5    2    7 ar
     6    2    3 ar
     7    3    4 ar
     8    3   30 1
     9    4    5 ar
    10    4   26 1
    11    5    6 ar
    12    5   31 1
    13    6    7 ar
    14    6    8 1
    15    7   32 1
    16    8    9 am
    17    8   33 1
    18    9   10 2
    19    9   11 am
    20   11   16 1
    21   11   12 1
    22   12   13 1
    23   12   34 1
    24   12   35 1
    25   13   14 1
    26   13   36 1
    27   13   37 1
    28   14   15 1
    29   14   17 1
    30   14   38 1
    31   15   16 1
    32   15   39 1
    33   15   40 1
    34   16   41 1
    35   16   42 1
    36   17   18 am
    37   17   43 1
    38   18   19 2
    39   18   20 1
    40   20   25 1
    41   20   21 1
    42   20   44 1
    43   21   22 1
    44   21   45 1
    45   21   46 1
    46   22   23 1
    47   22   47 1
    48   22   48 1
    49   23   24 1
    50   23   49 1
    51   23   50 1
    52   24   25 1
    53   24   51 1
    54   24   52 1
    55   25   53 1
    56   25   54 1
    57   26   55 1
    58   26   56 1
    59   26   57 1
@<TRIPOS>MOLECULE
ZINC20540346
   50    52     0     0     0
SMALL
USER_CHARGES
1-[3,5-dimethyl-1-(m-tolylmethyl)pyrazol-4-yl]-3-(o-tolyl)urea
@<TRIPOS>ATOM
      1 C1         -1.8722    0.9389    1.1409 C.3       1 <0>        -0.1193
      2 C2         -0.7740    1.9649    1.0303 C.ar      1 <0>        -0.0857
      3 C3          0.5455    1.5854    1.1928 C.ar      1 <0>        -0.1107
      4 C4          1.5532    2.5253    1.0856 C.ar      1 <0>        -0.1183
      5 C5          1.2412    3.8461    0.8216 C.ar      1 <0>        -0.1092
      6 C6         -0.0782    4.2265    0.6644 C.ar      1 <0>        -0.1120
      7 C7         -1.0861    3.2861    0.7707 C.ar      1 <0>        -0.0913
      8 C8         -0.4183    5.6663    0.3776 C.3       1 <0>         0.1778
      9 N1         -0.4387    5.8841   -1.0710 N.pl3     1 <0>        -0.3624
     10 C9          0.6164    6.2650   -1.8373 C.2       1 <0>         0.0627
     11 C10         0.1811    6.3509   -3.1200 C.2       1 <0>         0.0172
     12 C11        -1.1819    6.0209   -3.1344 C.2       1 <0>         0.0969
     13 N2         -1.5510    5.7423   -1.9105 N.2       1 <0>        -0.2843
     14 C12        -2.0697    5.9920   -4.3517 C.3       1 <0>        -0.1036
     15 N3          0.9584    6.7132   -4.2371 N.am      1 <0>        -0.6630
     16 C13         0.4015    7.4078   -5.2490 C.2       1 <0>         0.7008
     17 O1         -0.7491    7.7915   -5.1621 O.2       1 <0>        -0.5498
     18 N4          1.1198    7.6769   -6.3572 N.am      1 <0>        -0.6904
     19 C14         0.5111    8.3034   -7.4505 C.ar      1 <0>         0.1758
     20 C15        -0.8655    8.2272   -7.6184 C.ar      1 <0>        -0.1363
     21 C16        -1.4636    8.8502   -8.6960 C.ar      1 <0>        -0.1022
     22 C17        -0.6922    9.5412   -9.6127 C.ar      1 <0>        -0.1417
     23 C18         0.6789    9.6145   -9.4511 C.ar      1 <0>        -0.0984
     24 C19         1.2827    8.9975   -8.3727 C.ar      1 <0>        -0.1257
     25 C20         2.7774    9.0774   -8.1977 C.3       1 <0>        -0.1140
     26 C21         2.0165    6.5389   -1.3519 C.3       1 <0>        -0.0922
     27 H1         -1.4326   -0.0478    1.3488 H         1 <0>         0.0668
     28 H2         -2.4329    0.8987    0.1954 H         1 <0>         0.0713
     29 H3         -2.5527    1.2169    1.9592 H         1 <0>         0.0719
     30 H4          0.7892    0.5537    1.3990 H         1 <0>         0.1236
     31 H5          2.5842    2.2281    1.2084 H         1 <0>         0.1248
     32 H6          2.0286    4.5807    0.7385 H         1 <0>         0.1218
     33 H7         -2.1171    3.5834    0.6482 H         1 <0>         0.1249
     34 H8         -1.4078    5.9000    0.7975 H         1 <0>         0.1058
     35 H9          0.3382    6.3201    0.8361 H         1 <0>         0.1019
     36 H10        -3.0877    5.6983   -4.0561 H         1 <0>         0.0584
     37 H11        -1.6743    5.2653   -5.0767 H         1 <0>         0.0613
     38 H12        -2.0950    6.9913   -4.8108 H         1 <0>         0.1409
     39 H13         2.0201    6.4293   -4.2838 H         1 <0>         0.4230
     40 H14         2.1845    7.4041   -6.4023 H         1 <0>         0.4260
     41 H15        -1.4679    7.6843   -6.9052 H         1 <0>         0.1505
     42 H16        -2.5344    8.7945   -8.8252 H         1 <0>         0.1233
     43 H17        -1.1619   10.0244  -10.4567 H         1 <0>         0.1207
     44 H18         1.2786   10.1543  -10.1691 H         1 <0>         0.1234
     45 H19         3.2120    9.6640   -9.0205 H         1 <0>         0.0703
     46 H20         3.2023    8.0628   -8.2063 H         1 <0>         0.0652
     47 H21         3.0088    9.5637   -7.2386 H         1 <0>         0.0671
     48 H22         2.6499    6.8279   -2.2036 H         1 <0>         0.0808
     49 H23         2.4255    5.6324   -0.8818 H         1 <0>         0.0770
     50 H24         1.9961    7.3563   -0.6161 H         1 <0>         0.0785
@<TRIPOS>BOND
     1    1    2 1
     2    1   27 1
     3    1   28 1
     4    1   29 1
     5    2    7 ar
     6    2    3 ar
     7    3    4 ar
     8    3   30 1
     9    4    5 ar
    10    4   31 1
    11    5    6 ar
    12    5   32 1
    13    6    7 ar
    14    6    8 1
    15    7   33 1
    16    8    9 1
    17    8   34 1
    18    8   35 1
    19    9   13 1
    20    9   10 1
    21   10   11 2
    22   10   26 1
    23   11   12 1
    24   11   15 1
    25   12   13 2
    26   12   14 1
    27   14   36 1
    28   14   37 1
    29   14   38 1
    30   15   16 am
    31   15   39 1
    32   16   17 2
    33   16   18 am
    34   18   19 1
    35   18   40 1
    36   19   24 ar
    37   19   20 ar
    38   20   21 ar
    39   20   41 1
    40   21   22 ar
    41   21   42 1
    42   22   23 ar
    43   22   43 1
    44   23   24 ar
    45   23   44 1
    46   24   25 1
    47   25   45 1
    48   25   46 1
    49   25   47 1
    50   26   48 1
    51   26   49 1
    52   26   50 1
@<TRIPOS>MOLECULE
ZINC04910812
   50    53     0     0     0
SMALL
USER_CHARGES

@<TRIPOS>ATOM
      1 C1          1.0937    1.4174    0.2441 C.3       1 <0>        -0.1146
      2 C2          0.4113    2.1149    1.3925 C.ar      1 <0>        -0.1184
      3 C3          0.3173    3.4929    1.4069 C.ar      1 <0>        -0.1037
      4 C4         -0.3082    4.1337    2.4605 C.ar      1 <0>        -0.1346
      5 C5         -0.8421    3.3978    3.5028 C.ar      1 <0>        -0.1086
      6 C6         -0.7520    2.0200    3.4945 C.ar      1 <0>        -0.1105
      7 C7         -0.1288    1.3726    2.4348 C.ar      1 <0>         0.1573
      8 N1         -0.0409   -0.0221    2.4203 N.pl3     1 <0>        -0.6553
      9 C8          0.1188   -0.7198    3.6096 C.ar      1 <0>         0.4129
     10 C9          0.2456   -2.1154    3.5630 C.ar      1 <0>        -0.1654
     11 C10         0.4062   -2.8248    4.7434 C.ar      1 <0>        -0.0368
     12 C11         0.4339   -2.0578    5.9896 C.ar      1 <0>        -0.1053
     13 C12         0.5921   -2.6843    7.2306 C.ar      1 <0>        -0.0834
     14 C13         0.6127   -1.9313    8.3672 C.ar      1 <0>        -0.1337
     15 C14         0.4783   -0.5463    8.3077 C.ar      1 <0>        -0.0847
     16 C15         0.3223    0.0939    7.1164 C.ar      1 <0>        -0.1122
     17 C16         0.2968   -0.6497    5.9232 C.ar      1 <0>         0.1725
     18 N2          0.1510   -0.0485    4.7388 N.ar      1 <0>        -0.5147
     19 C17         0.5436   -4.2977    4.7433 C.2       1 <0>         0.5629
     20 O1          0.5617   -4.9064    5.7952 O.2       1 <0>        -0.5202
     21 N3          0.6485   -4.9647    3.5769 N.am      1 <0>        -0.7139
     22 C18         0.7845   -6.4233    3.5768 C.3       1 <0>         0.1093
     23 C19         0.8843   -6.9261    2.1352 C.3       1 <0>         0.0666
     24 H1          0.0347   -6.5625    1.5573 H         1 <0>         0.0893
     25 C20         0.9063   -8.4697    2.1193 C.3       1 <0>        -0.1482
     26 C21         1.9423   -8.7731    1.0027 C.3       1 <0>        -0.1563
     27 C22         2.9287   -7.5926    1.1881 C.3       1 <0>         0.0486
     28 O2          2.1060   -6.4679    1.5442 O.3       1 <0>        -0.3769
     29 H2          0.3624    1.1976   -0.5337 H         1 <0>         0.0691
     30 H3          1.8728    2.0627   -0.1617 H         1 <0>         0.0703
     31 H4          1.5393    0.4874    0.5970 H         1 <0>         0.0621
     32 H5          0.7331    4.0704    0.5946 H         1 <0>         0.1230
     33 H6         -0.3797    5.2113    2.4696 H         1 <0>         0.1207
     34 H7         -1.3297    3.9015    4.3244 H         1 <0>         0.1224
     35 H8         -1.1691    1.4460    4.3087 H         1 <0>         0.1414
     36 H9         -0.0915   -0.5025    1.5792 H         1 <0>         0.4178
     37 H10         0.2182   -2.6335    2.6157 H         1 <0>         0.1411
     38 H11         0.6968   -3.7576    7.2879 H         1 <0>         0.1597
     39 H12         0.7344   -2.4148    9.3253 H         1 <0>         0.1278
     40 H13         0.4976    0.0290    9.2214 H         1 <0>         0.1298
     41 H14         0.2187    1.1686    7.0879 H         1 <0>         0.1356
     42 H15         0.6340   -4.4789    2.7374 H         1 <0>         0.4044
     43 H16         1.6852   -6.7043    4.1227 H         1 <0>         0.0776
     44 H17        -0.0859   -6.8694    4.0578 H         1 <0>         0.0838
     45 H18         1.2435   -8.8628    3.0784 H         1 <0>         0.0838
     46 H19        -0.0737   -8.8690    1.8581 H         1 <0>         0.0885
     47 H20         2.4369   -9.7290    1.1749 H         1 <0>         0.0871
     48 H21         1.4772   -8.7454    0.0173 H         1 <0>         0.0808
     49 H22         3.6363   -7.8128    1.9875 H         1 <0>         0.0630
     50 H23         3.4588   -7.3928    0.2569 H         1 <0>         0.0883
@<TRIPOS>BOND
     1    1    2 1
     2    1   29 1
     3    1   30 1
     4    1   31 1
     5    2    7 ar
     6    2    3 ar
     7    3    4 ar
     8    3   32 1
     9    4    5 ar
    10    4   33 1
    11    5    6 ar
    12    5   34 1
    13    6    7 ar
    14    6   35 1
    15    7    8 1
    16    8    9 1
    17    8   36 1
    18    9   18 ar
    19    9   10 ar
    20   10   11 ar
    21   10   37 1
    22   11   12 ar
    23   11   19 1
    24   12   17 ar
    25   12   13 ar
    26   13   14 ar
    27   13   38 1
    28   14   15 ar
    29   14   39 1
    30   15   16 ar
    31   15   40 1
    32   16   17 ar
    33   16   41 1
    34   17   18 ar
    35   19   20 2
    36   19   21 am
    37   21   22 1
    38   21   42 1
    39   22   23 1
    40   22   43 1
    41   22   44 1
    42   23   24 1
    43   23   28 1
    44   23   25 1
    45   25   26 1
    46   25   45 1
    47   25   46 1
    48   26   27 1
    49   26   47 1
    50   26   48 1
    51   27   28 1
    52   27   49 1
    53   27   50 1
@<TRIPOS>MOLECULE
ZINC33906372
   45    47     0     0     0
SMALL
USER_CHARGES

@<TRIPOS>ATOM
      1 C1         -1.5312    3.2125   -0.5112 C.3       1 <0>        -0.1483
      2 C2         -1.1294    1.9279    0.2163 C.3       1 <0>        -0.0916
      3 C3         -2.2743    0.9487    0.1760 C.ar      1 <0>        -0.0617
      4 C4         -3.2223    0.9561    1.1839 C.ar      1 <0>        -0.1116
      5 C5         -4.2726    0.0625    1.1538 C.ar      1 <0>        -0.1222
      6 C6         -4.3781   -0.8510    0.1023 C.ar      1 <0>        -0.1113
      7 C7         -3.4175   -0.8524   -0.9120 C.ar      1 <0>        -0.0797
      8 C8         -2.3755    0.0504   -0.8716 C.ar      1 <0>        -0.1124
      9 C9         -5.4979   -1.8099    0.0634 C.2       1 <0>         0.1466
     10 N1         -5.9587   -2.3144    1.1667 N.2       1 <0>        -0.2004
     11 N2         -5.2956   -2.0747    2.3773 N.pl3     1 <0>        -0.5587
     12 C10        -5.8466   -2.5031    3.5571 C.2       1 <0>         0.6524
     13 N3         -6.9965   -3.1431    3.5361 N.2       1 <0>        -0.5474
     14 C11        -7.5692   -3.5786    4.6661 C.2       1 <0>         0.2657
     15 C12        -6.9448   -3.3547    5.8844 C.2       1 <0>        -0.3366
     16 C13        -5.7192   -2.6716    5.8976 C.2       1 <0>         0.5467
     17 N4         -5.1896   -2.2623    4.7257 N.am      1 <0>        -0.6513
     18 O1         -5.1399   -2.4558    6.9498 O.2       1 <0>        -0.5393
     19 C14        -8.8647   -4.2962    4.6149 C.ar      1 <0>        -0.0638
     20 C15        -9.4636   -4.7445    5.7917 C.ar      1 <0>        -0.0867
     21 C16       -10.6700   -5.4122    5.7377 C.ar      1 <0>        -0.1280
     22 C17       -11.2850   -5.6375    4.5191 C.ar      1 <0>        -0.0995
     23 C18       -10.6957   -5.1952    3.3483 C.ar      1 <0>        -0.1310
     24 C19        -9.4925   -4.5209    3.3901 C.ar      1 <0>        -0.0668
     25 C20        -6.1071   -2.2038   -1.2575 C.3       1 <0>        -0.0944
     26 H1         -0.7031    3.9207   -0.4821 H         1 <0>         0.0620
     27 H2         -1.7755    2.9816   -1.5481 H         1 <0>         0.0575
     28 H3         -2.4011    3.6503   -0.0218 H         1 <0>         0.0565
     29 H4         -0.2595    1.4900   -0.2732 H         1 <0>         0.0764
     30 H5         -0.8851    2.1588    1.2531 H         1 <0>         0.0754
     31 H6         -3.1395    1.6629    1.9962 H         1 <0>         0.1294
     32 H7         -5.0115    0.0689    1.9415 H         1 <0>         0.1248
     33 H8         -3.4929   -1.5559   -1.7280 H         1 <0>         0.1346
     34 H9         -1.6344    0.0533   -1.6572 H         1 <0>         0.1308
     35 H10        -4.4467   -1.6055    2.3806 H         1 <0>         0.4025
     36 H11        -7.3933   -3.6990    6.8046 H         1 <0>         0.1568
     37 H12        -8.9840   -4.5698    6.7435 H         1 <0>         0.1305
     38 H13       -11.1348   -5.7599    6.6484 H         1 <0>         0.1282
     39 H14       -12.2288   -6.1612    4.4817 H         1 <0>         0.1251
     40 H15       -11.1804   -5.3743    2.3999 H         1 <0>         0.1271
     41 H16        -9.0358   -4.1718    2.4759 H         1 <0>         0.1396
     42 H17        -5.5859   -3.0759   -1.6524 H         1 <0>         0.0899
     43 H18        -7.1606   -2.4440   -1.1145 H         1 <0>         0.0885
     44 H19        -6.0153   -1.3763   -1.9611 H         1 <0>         0.0851
     45 H20        -4.3413   -1.7921    4.7160 H         1 <0>         0.4107
@<TRIPOS>BOND
     1    1    2 1
     2    1   26 1
     3    1   27 1
     4    1   28 1
     5    2    3 1
     6    2   29 1
     7    2   30 1
     8    3    8 ar
     9    3    4 ar
    10    4    5 ar
    11    4   31 1
    12    5    6 ar
    13    5   32 1
    14    6    7 ar
    15    6    9 1
    16    7    8 ar
    17    7   33 1
    18    8   34 1
    19    9   10 2
    20    9   25 1
    21   10   11 1
    22   11   12 1
    23   11   35 1
    24   12   17 1
    25   12   13 2
    26   13   14 1
    27   14   15 2
    28   14   19 1
    29   15   16 1
    30   15   36 1
    31   16   17 am
    32   16   18 2
    33   17   45 1
    34   19   24 ar
    35   19   20 ar
    36   20   21 ar
    37   20   37 1
    38   21   22 ar
    39   21   38 1
    40   22   23 ar
    41   22   39 1
    42   23   24 ar
    43   23   40 1
    44   24   41 1
    45   25   42 1
    46   25   43 1
    47   25   44 1
@<TRIPOS>MOLECULE
ZINC60374490
   45    46     0     0     0
SMALL
USER_CHARGES

@<TRIPOS>ATOM
      1 C1         -0.0184    1.5028    0.0103 C.3       1 <0>        -0.0887
      2 C2          0.0021   -0.0041    0.0020 C.2       1 <0>         0.0776
      3 C3         -1.0762   -0.8075    0.0026 C.2       1 <0>        -0.2836
      4 C4         -0.6253   -2.1466   -0.0076 C.2       1 <0>         0.3510
      5 N1          0.6830   -2.1300   -0.0140 N.2       1 <0>        -0.3576
      6 O1          1.0997   -0.7765   -0.0131 O.3       1 <0>        -0.0713
      7 N2         -1.4320   -3.2846   -0.0100 N.am      1 <0>        -0.6440
      8 C5         -2.7739   -3.1593   -0.0021 C.2       1 <0>         0.7176
      9 O2         -3.2813   -2.0546    0.0070 O.2       1 <0>        -0.5493
     10 N3         -3.5533   -4.2589   -0.0044 N.am      1 <0>        -0.7267
     11 C6         -5.0120   -4.1228    0.0041 C.3       1 <0>         0.2153
     12 H1         -5.2924   -3.2543    0.6001 H         1 <0>         0.1063
     13 C7         -5.6286   -5.3617    0.6006 C.ar      1 <0>        -0.0909
     14 C8         -5.1059   -6.6064    0.3022 C.ar      1 <0>        -0.0821
     15 C9         -5.6715   -7.7427    0.8493 C.ar      1 <0>        -0.1145
     16 C10        -6.7596   -7.6346    1.6954 C.ar      1 <0>        -0.0680
     17 C11        -7.2816   -6.3903    1.9944 C.ar      1 <0>        -0.1769
     18 C12        -6.7132   -5.2533    1.4505 C.ar      1 <0>        -0.0531
     19 C13        -8.4679   -6.2725    2.9163 C.3       1 <0>         0.5077
     20 F1         -8.8593   -7.5478    3.3378 F         1 <0>        -0.1758
     21 F2         -8.1187   -5.5002    4.0293 F         1 <0>        -0.1748
     22 F3         -9.5269   -5.6602    2.2375 F         1 <0>        -0.1744
     23 C14        -5.5157   -3.9418   -1.4292 C.3       1 <0>        -0.0744
     24 C15        -5.1221   -5.1609   -2.2658 C.3       1 <0>        -0.1490
     25 C16        -7.0391   -3.7997   -1.4203 C.3       1 <0>        -0.1441
     26 C17        -4.8897   -2.6840   -2.0348 C.3       1 <0>        -0.1324
     27 H2          1.0042    1.8801    0.0026 H         1 <0>         0.0855
     28 H3         -0.5455    1.8639   -0.8728 H         1 <0>         0.0971
     29 H4         -0.5286    1.8543    0.9071 H         1 <0>         0.0971
     30 H5         -2.1071   -0.4855    0.0099 H         1 <0>         0.1845
     31 H6         -1.0272   -4.1660   -0.0173 H         1 <0>         0.4174
     32 H7         -3.1485   -5.1403   -0.0117 H         1 <0>         0.3994
     33 H8         -4.2559   -6.6908   -0.3587 H         1 <0>         0.1321
     34 H9         -5.2636   -8.7150    0.6156 H         1 <0>         0.1391
     35 H10        -7.2020   -8.5225    2.1223 H         1 <0>         0.1413
     36 H11        -7.1187   -4.2807    1.6872 H         1 <0>         0.1376
     37 H12        -5.5681   -6.0570   -1.8344 H         1 <0>         0.0616
     38 H13        -5.4810   -5.0320   -3.2869 H         1 <0>         0.0599
     39 H14        -4.0368   -5.2621   -2.2722 H         1 <0>         0.0534
     40 H15        -7.3195   -2.9312   -0.8243 H         1 <0>         0.0597
     41 H16        -7.3979   -3.6708   -2.4414 H         1 <0>         0.0625
     42 H17        -7.4851   -4.6958   -0.9888 H         1 <0>         0.0582
     43 H18        -3.8044   -2.7853   -2.0412 H         1 <0>         0.0523
     44 H19        -5.2485   -2.5551   -3.0560 H         1 <0>         0.0510
     45 H20        -5.1701   -1.8155   -1.4388 H         1 <0>         0.0666
@<TRIPOS>BOND
     1    1    2 1
     2    1   27 1
     3    1   28 1
     4    1   29 1
     5    2    6 1
     6    2    3 2
     7    3    4 1
     8    3   30 1
     9    4    5 2
    10    4    7 1
    11    5    6 1
    12    7    8 am
    13    7   31 1
    14    8    9 2
    15    8   10 am
    16   10   11 1
    17   10   32 1
    18   11   12 1
    19   11   13 1
    20   11   23 1
    21   13   18 ar
    22   13   14 ar
    23   14   15 ar
    24   14   33 1
    25   15   16 ar
    26   15   34 1
    27   16   17 ar
    28   16   35 1
    29   17   18 ar
    30   17   19 1
    31   18   36 1
    32   19   20 1
    33   19   21 1
    34   19   22 1
    35   23   24 1
    36   23   25 1
    37   23   26 1
    38   24   37 1
    39   24   38 1
    40   24   39 1
    41   25   40 1
    42   25   41 1
    43   25   42 1
    44   26   43 1
    45   26   44 1
    46   26   45 1
@<TRIPOS>MOLECULE
ZINC04302782
   56    58     0     0     0
SMALL
USER_CHARGES
methyl 4-[[2-[(p-tolylcarbamoylformyl)aminoiminomethyl]phenoxy]methyl]benzoate
@<TRIPOS>ATOM
      1 C1         -1.0925   -6.3462   -0.4498 C.3       1 <0>        -0.1157
      2 C2         -1.1093   -4.8442   -0.3278 C.ar      1 <0>        -0.0933
      3 C3         -0.0995   -4.1966    0.3603 C.ar      1 <0>        -0.1029
      4 C4         -0.1119   -2.8204    0.4740 C.ar      1 <0>        -0.1129
      5 C5         -1.1402   -2.0864   -0.1037 C.ar      1 <0>         0.1276
      6 C6         -2.1561   -2.7407   -0.7893 C.ar      1 <0>        -0.1312
      7 C7         -2.1343   -4.1167   -0.9045 C.ar      1 <0>        -0.1021
      8 N1         -1.1558   -0.6938    0.0094 N.am      1 <0>        -0.6387
      9 C8          0.0020   -0.0039    0.0000 C.2       1 <0>         0.5151
     10 O1          1.0614   -0.5964   -0.0220 O.2       1 <0>        -0.4988
     11 C9         -0.0183    1.4867    0.0168 C.2       1 <0>         0.5273
     12 O2         -1.0783    2.0795    0.0339 O.2       1 <0>        -0.4656
     13 N2          1.1395    2.1766    0.0075 N.am      1 <0>        -0.5616
     14 N3          1.1204    3.5774    0.0233 N.2       1 <0>        -0.2011
     15 C10         2.2366    4.2425    0.0143 C.2       1 <0>         0.1153
     16 C11         2.2166    5.7151    0.0309 C.ar      1 <0>        -0.0942
     17 C12         3.4146    6.4343    0.0271 C.ar      1 <0>        -0.0475
     18 C13         3.3885    7.8127    0.0378 C.ar      1 <0>        -0.1627
     19 C14         2.1799    8.4882    0.0630 C.ar      1 <0>        -0.0578
     20 C15         0.9881    7.7887    0.0723 C.ar      1 <0>        -0.2184
     21 C16         0.9953    6.4034    0.0564 C.ar      1 <0>         0.1666
     22 O3         -0.1752    5.7153    0.0650 O.3       1 <0>        -0.2677
     23 C17        -1.3795    6.4840    0.0912 C.3       1 <0>         0.0916
     24 C18        -2.5674    5.5567    0.0972 C.ar      1 <0>        -0.0488
     25 C19        -3.1309    5.1515   -1.0998 C.ar      1 <0>        -0.1020
     26 C20        -4.2153    4.2989   -1.1016 C.ar      1 <0>        -0.0608
     27 C21        -4.7509    3.8532    0.1084 C.ar      1 <0>        -0.1158
     28 C22        -4.1806    4.2702    1.3128 C.ar      1 <0>        -0.0533
     29 C23        -3.0931    5.1188    1.2999 C.ar      1 <0>        -0.0999
     30 C24        -5.9153    2.9442    0.1143 C.2       1 <0>         0.5083
     31 O4         -6.3788    2.5578    1.1685 O.2       1 <0>        -0.5041
     32 O5         -6.4632    2.5437   -1.0494 O.3       1 <0>        -0.3549
     33 C25        -7.6050    1.6505   -0.9676 C.3       1 <0>         0.0362
     34 H1         -1.6314   -6.7850    0.3899 H         1 <0>         0.0718
     35 H2         -1.5724   -6.6403   -1.3832 H         1 <0>         0.0673
     36 H3         -0.0614   -6.6996   -0.4443 H         1 <0>         0.0674
     37 H4          0.6994   -4.7678    0.8095 H         1 <0>         0.1280
     38 H5          0.6772   -2.3152    1.0112 H         1 <0>         0.1394
     39 H6         -2.9596   -2.1735   -1.2355 H         1 <0>         0.1285
     40 H7         -2.9211   -4.6255   -1.4415 H         1 <0>         0.1290
     41 H8         -1.9999   -0.2235    0.0946 H         1 <0>         0.4239
     42 H9          1.9859    1.7032   -0.0101 H         1 <0>         0.3956
     43 H10         3.1791    3.7155   -0.0054 H         1 <0>         0.1244
     44 H11         4.3594    5.9113    0.0116 H         1 <0>         0.1364
     45 H12         4.3148    8.3681    0.0308 H         1 <0>         0.1305
     46 H13         2.1687    9.5681    0.0751 H         1 <0>         0.1288
     47 H14         0.0496    8.3228    0.0916 H         1 <0>         0.1325
     48 H15        -1.3966    7.1021    0.9888 H         1 <0>         0.0746
     49 H16        -1.4220    7.1230   -0.7908 H         1 <0>         0.0747
     50 H17        -2.7182    5.5003   -2.0349 H         1 <0>         0.1305
     51 H18        -4.6514    3.9799   -2.0367 H         1 <0>         0.1384
     52 H19        -4.5898    3.9289    2.2522 H         1 <0>         0.1378
     53 H20        -2.6508    5.4418    2.2307 H         1 <0>         0.1315
     54 H21        -7.3146    0.7360   -0.4506 H         1 <0>         0.0644
     55 H22        -8.4096    2.1389   -0.4178 H         1 <0>         0.0646
     56 H23        -7.9480    1.4063   -1.9730 H         1 <0>         0.1039
@<TRIPOS>BOND
     1    1    2 1
     2    1   34 1
     3    1   35 1
     4    1   36 1
     5    2    7 ar
     6    2    3 ar
     7    3    4 ar
     8    3   37 1
     9    4    5 ar
    10    4   38 1
    11    5    6 ar
    12    5    8 1
    13    6    7 ar
    14    6   39 1
    15    7   40 1
    16    8    9 am
    17    8   41 1
    18    9   10 2
    19    9   11 1
    20   11   12 2
    21   11   13 am
    22   13   14 1
    23   13   42 1
    24   14   15 2
    25   15   16 1
    26   15   43 1
    27   16   21 ar
    28   16   17 ar
    29   17   18 ar
    30   17   44 1
    31   18   19 ar
    32   18   45 1
    33   19   20 ar
    34   19   46 1
    35   20   21 ar
    36   20   47 1
    37   21   22 1
    38   22   23 1
    39   23   24 1
    40   23   48 1
    41   23   49 1
    42   24   29 ar
    43   24   25 ar
    44   25   26 ar
    45   25   50 1
    46   26   27 ar
    47   26   51 1
    48   27   28 ar
    49   27   30 1
    50   28   29 ar
    51   28   52 1
    52   29   53 1
    53   30   31 2
    54   30   32 1
    55   32   33 1
    56   33   54 1
    57   33   55 1
    58   33   56 1
@<TRIPOS>MOLECULE
ZINC11855074
   58    61     0     0     0
SMALL
USER_CHARGES
N-[2-(5-ethyl-4-methyl-6-oxo-1H-pyrimidin-2-yl)-5-(2-thienyl)pyrazol-3-yl]-4-isopropoxy-benzamide
@<TRIPOS>ATOM
      1 C1         -0.7490   13.2822   -1.6944 C.3       1 <0>        -0.1476
      2 C2         -0.5832   12.5932   -0.3384 C.3       1 <0>        -0.0566
      3 C3         -0.1518   11.1648   -0.5501 C.2       1 <0>        -0.2630
      4 C4          1.1690   10.8263   -0.5143 C.2       1 <0>         0.2040
      5 N1          1.5390    9.5601   -0.6979 N.2       1 <0>        -0.5774
      6 C5          0.6542    8.6138   -0.9267 C.2       1 <0>         0.6521
      7 N2         -0.6762    8.8901   -0.9737 N.am      1 <0>        -0.6227
      8 H1         -1.3152    8.1793   -1.1393 H         1 <0>         0.4289
      9 C6         -1.1050   10.1570   -0.7887 C.2       1 <0>         0.5413
     10 O1         -2.2950   10.4228   -0.8273 O.2       1 <0>        -0.5157
     11 N3          1.0842    7.3152   -1.1170 N.pl3     1 <0>        -0.3502
     12 C7          2.3817    6.8877   -1.0979 C.2       1 <0>         0.3627
     13 C8          2.3781    5.5498   -1.3256 C.2       1 <0>        -0.2524
     14 C9          1.0369    5.1434   -1.4894 C.2       1 <0>         0.2244
     15 N4          0.2671    6.2057   -1.3687 N.2       1 <0>        -0.2781
     16 C10         0.5756    3.7646   -1.7568 C.2       1 <0>        -0.1149
     17 C11        -0.7011    3.2995   -1.9258 C.2       1 <0>        -0.1060
     18 C12        -0.8897    1.9572   -2.1723 C.2       1 <0>        -0.1658
     19 C13         0.1908    1.1371   -2.2302 C.2       1 <0>        -0.1592
     20 S1          1.5381    2.2724   -1.9425 S.3       1 <0>         0.1112
     21 N5          3.5051    7.6815   -0.8832 N.am      1 <0>        -0.6363
     22 C14         4.7335    7.1270   -0.8907 C.2       1 <0>         0.5720
     23 O2          4.8605    5.9333   -1.0850 O.2       1 <0>        -0.5022
     24 C15         5.9242    7.9683   -0.6632 C.ar      1 <0>        -0.1817
     25 C16         5.7808    9.3413   -0.4453 C.ar      1 <0>        -0.0406
     26 C17         6.8940   10.1219   -0.2276 C.ar      1 <0>        -0.1597
     27 C18         8.1600    9.5480   -0.2357 C.ar      1 <0>         0.1710
     28 C19         8.3074    8.1838   -0.4577 C.ar      1 <0>        -0.2211
     29 C20         7.1988    7.3952   -0.6705 C.ar      1 <0>        -0.0061
     30 O3          9.2551   10.3217   -0.0260 O.3       1 <0>        -0.3036
     31 C21        10.5137    9.6520    0.0708 C.3       1 <0>         0.0740
     32 C22        11.0818    9.4287   -1.3321 C.3       1 <0>        -0.1834
     33 C23        11.4860   10.5085    0.8844 C.3       1 <0>        -0.1506
     34 C24         2.2106   11.8854   -0.2603 C.3       1 <0>        -0.1126
     35 H2         -1.5048   12.7573   -2.2786 H         1 <0>         0.0563
     36 H3         -1.0610   14.3153   -1.5412 H         1 <0>         0.0623
     37 H4          0.2006   13.2649   -2.2293 H         1 <0>         0.0533
     38 H5         -1.5327   12.6105    0.1965 H         1 <0>         0.0798
     39 H6          0.1726   13.1181    0.2459 H         1 <0>         0.0797
     40 H7          3.2470    4.9102   -1.3732 H         1 <0>         0.1963
     41 H8         -1.5439    3.9727   -1.8708 H         1 <0>         0.1408
     42 H9         -1.8846    1.5619   -2.3150 H         1 <0>         0.1411
     43 H10         0.2264    0.0726   -2.4091 H         1 <0>         0.1930
     44 H11         3.4038    8.6337   -0.7282 H         1 <0>         0.4299
     45 H12         4.7978    9.7886   -0.4433 H         1 <0>         0.1336
     46 H13         6.7837   11.1822   -0.0548 H         1 <0>         0.1417
     47 H14         9.2928    7.7418   -0.4636 H         1 <0>         0.1410
     48 H15         7.3142    6.3353   -0.8426 H         1 <0>         0.1435
     49 H16        10.3764    8.6900    0.5645 H         1 <0>         0.0778
     50 H17        10.3892    8.8185   -1.9117 H         1 <0>         0.0644
     51 H18        11.2192   10.3907   -1.8258 H         1 <0>         0.0699
     52 H19        12.0419    8.9179   -1.2583 H         1 <0>         0.0759
     53 H20        11.0812   10.6676    1.8839 H         1 <0>         0.0666
     54 H21        12.4460    9.9977    0.9582 H         1 <0>         0.0802
     55 H22        11.6233   11.4706    0.3907 H         1 <0>         0.0690
     56 H23         2.3902   11.9686    0.8116 H         1 <0>         0.0935
     57 H24         3.1377   11.6114   -0.7638 H         1 <0>         0.0833
     58 H25         1.8573   12.8421   -0.6448 H         1 <0>         0.0928
@<TRIPOS>BOND
     1    1    2 1
     2    1   35 1
     3    1   36 1
     4    1   37 1
     5    2    3 1
     6    2   38 1
     7    2   39 1
     8    3    9 1
     9    3    4 2
    10    4    5 1
    11    4   34 1
    12    5    6 2
    13    6    7 1
    14    6   11 1
    15    7    8 1
    16    7    9 am
    17    9   10 2
    18   11   15 1
    19   11   12 1
    20   12   13 2
    21   12   21 1
    22   13   14 1
    23   13   40 1
    24   14   15 2
    25   14   16 1
    26   16   20 1
    27   16   17 2
    28   17   18 1
    29   17   41 1
    30   18   19 2
    31   18   42 1
    32   19   20 1
    33   19   43 1
    34   21   22 am
    35   21   44 1
    36   22   23 2
    37   22   24 1
    38   24   29 ar
    39   24   25 ar
    40   25   26 ar
    41   25   45 1
    42   26   27 ar
    43   26   46 1
    44   27   28 ar
    45   27   30 1
    46   28   29 ar
    47   28   47 1
    48   29   48 1
    49   30   31 1
    50   31   32 1
    51   31   33 1
    52   31   49 1
    53   32   50 1
    54   32   51 1
    55   32   52 1
    56   33   53 1
    57   33   54 1
    58   33   55 1
    59   34   56 1
    60   34   57 1
    61   34   58 1
@<TRIPOS>MOLECULE
ZINC21313917
   56    58     0     0     0
SMALL
USER_CHARGES
ethyl 4-[(7-chloro-3-isopentyl-4-oxo-quinazolin-2-yl)sulfanylmethyl]-2-oxo-3,6-dihydro-1H-pyrimidine-5-carboxylate
@<TRIPOS>ATOM
      1 C1          7.0946   -6.0289    2.8022 C.3       1 <0>        -0.1550
      2 C2          6.8154   -4.5271    2.7146 C.3       1 <0>         0.0561
      3 O1          6.8053   -4.1238    1.3437 O.3       1 <0>        -0.3459
      4 C3          6.5712   -2.8191    1.0907 C.2       1 <0>         0.5377
      5 O2          6.3809   -2.0456    2.0105 O.2       1 <0>        -0.4825
      6 C4          6.5471   -2.3507   -0.2438 C.2       1 <0>        -0.2392
      7 C5          5.4599   -2.5254   -1.0256 C.2       1 <0>         0.2207
      8 N1          5.4402   -2.0780   -2.3157 N.am      1 <0>        -0.6645
      9 C6          6.4629   -1.4364   -2.8948 C.2       1 <0>         0.7091
     10 O3          6.3498   -1.0705   -4.0484 O.2       1 <0>        -0.5671
     11 N2          7.6156   -1.1880   -2.2421 N.am      1 <0>        -0.7370
     12 C7          7.7405   -1.6361   -0.8449 C.3       1 <0>         0.1702
     13 C8          4.2511   -3.2311   -0.4672 C.3       1 <0>        -0.0994
     14 S1          2.9591   -2.0173   -0.1020 S.3       1 <0>         0.0379
     15 C9          1.7023   -3.0853    0.5180 C.2       1 <0>         0.3737
     16 N3          1.9465   -4.3715    0.5728 N.2       1 <0>        -0.5307
     17 C10         1.0252   -5.2475    1.0377 C.ar      1 <0>         0.1816
     18 C11         1.2838   -6.6197    1.0964 C.ar      1 <0>        -0.1053
     19 C12         0.3152   -7.4735    1.5768 C.ar      1 <0>         0.0137
     20 C13        -0.9152   -6.9860    2.0037 C.ar      1 <0>        -0.1319
     21 C14        -1.1913   -5.6482    1.9554 C.ar      1 <0>        -0.0217
     22 C15        -0.2289   -4.7617    1.4736 C.ar      1 <0>        -0.1988
     23 C16        -0.4734   -3.3149    1.4056 C.2       1 <0>         0.5561
     24 O4         -1.5313   -2.8360    1.7708 O.2       1 <0>        -0.4952
     25 N4          0.5187   -2.5343    0.9185 N.am      1 <0>        -0.5252
     26 C17         0.3237   -1.0853    0.8258 C.3       1 <0>         0.0817
     27 C18        -0.2685   -0.7369   -0.5413 C.3       1 <0>        -0.1312
     28 C19        -0.4721    0.7764   -0.6382 C.3       1 <0>        -0.0916
     29 C20         0.8870    1.4777   -0.5953 C.3       1 <0>        -0.1554
     30 C21        -1.1783    1.1129   -1.9531 C.3       1 <0>        -0.1489
     31 Cl1         0.6347   -9.1783    1.6505 Cl        1 <0>        -0.0491
     32 H1          7.1024   -6.3394    3.8574 H         1 <0>         0.0820
     33 H2          8.0726   -6.2471    2.3485 H         1 <0>         0.0687
     34 H3          6.3095   -6.5798    2.2636 H         1 <0>         0.0685
     35 H4          5.8374   -4.3089    3.1683 H         1 <0>         0.0696
     36 H5          7.6005   -3.9761    3.2532 H         1 <0>         0.0719
     37 H6          4.5488   -2.2384   -2.9399 H         1 <0>         0.4573
     38 H7          8.4516   -0.6641   -2.7285 H         1 <0>         0.4625
     39 H8          7.9570   -0.7292   -0.2613 H         1 <0>         0.0819
     40 H9          8.6154   -2.3026   -0.8247 H         1 <0>         0.0801
     41 H10         3.8758   -3.9553   -1.2053 H         1 <0>         0.1355
     42 H11         4.5293   -3.7597    0.4565 H         1 <0>         0.1295
     43 H12         2.2365   -7.0080    0.7679 H         1 <0>         0.1512
     44 H13        -1.6610   -7.6720    2.3773 H         1 <0>         0.1461
     45 H14        -2.1499   -5.2796    2.2893 H         1 <0>         0.1490
     46 H15        -0.3648   -0.7566    1.6182 H         1 <0>         0.1102
     47 H16         1.2915   -0.5766    0.9466 H         1 <0>         0.1020
     48 H17         0.4200   -1.0657   -1.3337 H         1 <0>         0.0746
     49 H18        -1.2363   -1.2456   -0.6621 H         1 <0>         0.0738
     50 H19        -1.0879    1.1183    0.2067 H         1 <0>         0.0757
     51 H20         0.7405    2.5657   -0.6650 H         1 <0>         0.0602
     52 H21         1.5029    1.1358   -1.4402 H         1 <0>         0.0593
     53 H22         1.3947    1.2358    0.3501 H         1 <0>         0.0554
     54 H23        -1.3246    2.2009   -2.0227 H         1 <0>         0.0595
     55 H24        -2.1555    0.6088   -1.9839 H         1 <0>         0.0557
     56 H25        -0.5625    0.7710   -2.7980 H         1 <0>         0.0568
@<TRIPOS>BOND
     1    1    2 1
     2    1   32 1
     3    1   33 1
     4    1   34 1
     5    2    3 1
     6    2   35 1
     7    2   36 1
     8    3    4 1
     9    4    5 2
    10    4    6 1
    11    6   12 1
    12    6    7 2
    13    7    8 1
    14    7   13 1
    15    8    9 am
    16    8   37 1
    17    9   10 2
    18    9   11 am
    19   11   12 1
    20   11   38 1
    21   12   39 1
    22   12   40 1
    23   13   14 1
    24   13   41 1
    25   13   42 1
    26   14   15 1
    27   15   25 1
    28   15   16 2
    29   16   17 1
    30   17   22 ar
    31   17   18 ar
    32   18   19 ar
    33   18   43 1
    34   19   20 ar
    35   19   31 1
    36   20   21 ar
    37   20   44 1
    38   21   22 ar
    39   21   45 1
    40   22   23 1
    41   23   24 2
    42   23   25 am
    43   25   26 1
    44   26   27 1
    45   26   46 1
    46   26   47 1
    47   27   28 1
    48   27   48 1
    49   27   49 1
    50   28   29 1
    51   28   30 1
    52   28   50 1
    53   29   51 1
    54   29   52 1
    55   29   53 1
    56   30   54 1
    57   30   55 1
    58   30   56 1
@<TRIPOS>MOLECULE
ZINC36045080
   64    66     0     0     0
SMALL
USER_CHARGES

@<TRIPOS>ATOM
      1 C1         -0.0187    1.5258    0.0104 C.3       1 <0>        -0.1638
      2 C2          0.0021   -0.0041    0.0020 C.3       1 <0>         0.1860
      3 C3          0.7421   -0.5109    1.2415 C.3       1 <0>        -0.1631
      4 C4         -1.4333   -0.5336    0.0129 C.3       1 <0>        -0.1557
      5 N1          0.6878   -0.4765   -1.2033 N.am      1 <0>        -0.7370
      6 C5          1.9715   -0.1323   -1.4270 C.2       1 <0>         0.7174
      7 O1          2.5605    0.5704   -0.6285 O.2       1 <0>        -0.5751
      8 N2          2.6023   -0.5669   -2.5359 N.am      1 <0>        -0.6033
      9 C6          3.9977   -0.1927   -2.7790 C.3       1 <0>         0.1401
     10 C7          4.9227   -1.2383   -2.1529 C.3       1 <0>         0.0428
     11 O2          4.7456   -2.4904   -2.8184 O.3       1 <0>        -0.3939
     12 C8          5.5679   -3.5416   -2.3074 C.3       1 <0>         0.0324
     13 C9          1.8927   -1.4136   -3.4980 C.3       1 <0>         0.1038
     14 C10         1.2167   -0.5457   -4.5281 C.2       1 <0>         0.4836
     15 O3          1.3178    0.6612   -4.4647 O.2       1 <0>        -0.4464
     16 N3          0.4999   -1.1107   -5.5197 N.am      1 <0>        -0.6424
     17 C11        -0.1230   -0.3110   -6.4688 C.2       1 <0>         0.4490
     18 N4         -0.0826    0.9976   -6.5096 N.2       1 <0>        -0.4461
     19 C12        -0.8003    1.4326   -7.5675 C.2       1 <0>         0.0634
     20 C13        -1.3053    0.3473   -8.2071 C.2       1 <0>        -0.0360
     21 N5         -0.8729   -0.7581   -7.5159 N.pl3     1 <0>        -0.4266
     22 C14        -1.1531   -2.0967   -7.8275 C.ar      1 <0>         0.1045
     23 C15        -0.1234   -3.0255   -7.8912 C.ar      1 <0>        -0.0985
     24 C16        -0.4012   -4.3433   -8.1976 C.ar      1 <0>        -0.1301
     25 C17        -1.7059   -4.7380   -8.4418 C.ar      1 <0>         0.1096
     26 C18        -2.7343   -3.8127   -8.3793 C.ar      1 <0>        -0.1316
     27 C19        -2.4610   -2.4954   -8.0670 C.ar      1 <0>        -0.0812
     28 F1         -1.9757   -6.0273   -8.7419 F         1 <0>        -0.1296
     29 C20        -1.0019    2.8484   -7.9612 C.ar      1 <0>        -0.0066
     30 C21        -1.7751    3.1606   -9.0781 C.ar      1 <0>        -0.1097
     31 C22        -1.9596    4.4796   -9.4394 C.ar      1 <0>        -0.1204
     32 C23        -1.3786    5.4910   -8.6958 C.ar      1 <0>        -0.1183
     33 C24        -0.6099    5.1871   -7.5866 C.ar      1 <0>        -0.1205
     34 C25        -0.4237    3.8718   -7.2123 C.ar      1 <0>        -0.0888
     35 H1          1.0039    1.9031    0.0027 H         1 <0>         0.0804
     36 H2         -0.5459    1.8868   -0.8726 H         1 <0>         0.0532
     37 H3         -0.5289    1.8773    0.9072 H         1 <0>         0.0616
     38 H4          0.2319   -0.1594    2.1383 H         1 <0>         0.0626
     39 H5          0.7568   -1.6008    1.2356 H         1 <0>         0.0515
     40 H6          1.7647   -0.1336    1.2338 H         1 <0>         0.0801
     41 H7         -1.9605   -0.1726   -0.8702 H         1 <0>         0.0606
     42 H8         -1.4185   -1.6235    0.0069 H         1 <0>         0.0606
     43 H9         -1.9435   -0.1821    0.9097 H         1 <0>         0.0762
     44 H10         0.2179   -1.0371   -1.8404 H         1 <0>         0.3890
     45 H11         4.1789   -0.1437   -3.8528 H         1 <0>         0.0849
     46 H12         4.1957    0.7816   -2.3323 H         1 <0>         0.1058
     47 H13         5.9586   -0.9153   -2.2561 H         1 <0>         0.0616
     48 H14         4.6808   -1.3511   -1.0961 H         1 <0>         0.0573
     49 H15         5.3743   -4.4579   -2.8650 H         1 <0>         0.0851
     50 H16         6.6172   -3.2664   -2.4138 H         1 <0>         0.0416
     51 H17         5.3394   -3.7021   -1.2538 H         1 <0>         0.0404
     52 H18         2.6030   -2.0769   -3.9915 H         1 <0>         0.1278
     53 H19         1.1432   -2.0080   -2.9754 H         1 <0>         0.1038
     54 H20         0.4190   -2.0760   -5.5704 H         1 <0>         0.4145
     55 H21        -1.9245    0.3519   -9.0920 H         1 <0>         0.1853
     56 H22         0.8943   -2.7179   -7.7015 H         1 <0>         0.1410
     57 H23         0.3996   -5.0662   -8.2472 H         1 <0>         0.1502
     58 H24        -3.7511   -4.1223   -8.5707 H         1 <0>         0.1493
     59 H25        -3.2639   -1.7750   -8.0135 H         1 <0>         0.1443
     60 H26        -2.2286    2.3717   -9.6598 H         1 <0>         0.1213
     61 H27        -2.5585    4.7227  -10.3047 H         1 <0>         0.1241
     62 H28        -1.5254    6.5219   -8.9824 H         1 <0>         0.1219
     63 H29        -0.1581    5.9807   -7.0100 H         1 <0>         0.1237
     64 H30         0.1730    3.6358   -6.3435 H         1 <0>         0.1322
@<TRIPOS>BOND
     1    1    2 1
     2    1   35 1
     3    1   36 1
     4    1   37 1
     5    2    3 1
     6    2    4 1
     7    2    5 1
     8    3   38 1
     9    3   39 1
    10    3   40 1
    11    4   41 1
    12    4   42 1
    13    4   43 1
    14    5    6 am
    15    5   44 1
    16    6    7 2
    17    6    8 am
    18    8    9 1
    19    8   13 1
    20    9   10 1
    21    9   45 1
    22    9   46 1
    23   10   11 1
    24   10   47 1
    25   10   48 1
    26   11   12 1
    27   12   49 1
    28   12   50 1
    29   12   51 1
    30   13   14 1
    31   13   52 1
    32   13   53 1
    33   14   15 2
    34   14   16 am
    35   16   17 1
    36   16   54 1
    37   17   21 1
    38   17   18 2
    39   18   19 1
    40   19   20 2
    41   19   29 1
    42   20   21 1
    43   20   55 1
    44   21   22 1
    45   22   27 ar
    46   22   23 ar
    47   23   24 ar
    48   23   56 1
    49   24   25 ar
    50   24   57 1
    51   25   26 ar
    52   25   28 1
    53   26   27 ar
    54   26   58 1
    55   27   59 1
    56   29   34 ar
    57   29   30 ar
    58   30   31 ar
    59   30   60 1
    60   31   32 ar
    61   31   61 1
    62   32   33 ar
    63   32   62 1
    64   33   34 ar
    65   33   63 1
    66   34   64 1
@<TRIPOS>MOLECULE
ZINC40922564
   60    63     0     0     0
SMALL
USER_CHARGES

@<TRIPOS>ATOM
      1 C1         -0.1563    1.6593   -0.4208 C.3       1 <0>        -0.1532
      2 C2         -0.1392    0.1297   -0.3920 C.3       1 <0>        -0.1211
      3 C3          0.6311   -0.3947   -1.6055 C.3       1 <0>        -0.1207
      4 C4          0.6482   -1.9243   -1.5767 C.3       1 <0>         0.0585
      5 O1          1.3676   -2.4140   -2.7101 O.3       1 <0>        -0.3110
      6 C5          1.4770   -3.7628   -2.8358 C.ar      1 <0>         0.1400
      7 C6          0.8988   -4.5980   -1.8906 C.ar      1 <0>        -0.1934
      8 C7          1.0110   -5.9684   -2.0208 C.ar      1 <0>        -0.0753
      9 C8          1.6990   -6.5084   -3.0920 C.ar      1 <0>        -0.1357
     10 C9          2.2764   -5.6784   -4.0348 C.ar      1 <0>        -0.0730
     11 C10         2.1621   -4.3070   -3.9122 C.ar      1 <0>        -0.1210
     12 C11         3.0259   -6.2702   -5.2006 C.3       1 <0>         0.2768
     13 H1          3.4075   -5.4681   -5.8324 H         1 <0>         0.1229
     14 C12         4.1759   -7.0981   -4.6905 C.2       1 <0>        -0.2853
     15 C13         4.1918   -8.4381   -4.7384 C.2       1 <0>         0.2138
     16 N1          3.1556   -9.1657   -5.2718 N.pl3     1 <0>        -0.6039
     17 C14         2.1975   -8.4726   -5.9974 C.2       1 <0>         0.4650
     18 N2          2.1274   -7.1158   -5.9777 N.pl3     1 <0>        -0.3877
     19 N3          1.0661   -6.7834   -6.8172 N.2       1 <0>        -0.0502
     20 N4          0.5856   -7.8998   -7.2617 N.2       1 <0>        -0.0218
     21 N5          1.2476   -8.8971   -6.7806 N.2       1 <0>        -0.3362
     22 C15         5.3881   -9.1714   -4.1887 C.3       1 <0>        -0.1361
     23 C16         5.2925   -6.4303   -4.1347 C.2       1 <0>         0.5920
     24 O2          6.1351   -5.9411   -4.8653 O.2       1 <0>        -0.5053
     25 N6          5.4238   -6.3357   -2.7967 N.am      1 <0>        -0.6584
     26 C17         6.4767   -5.5968   -2.2479 C.ar      1 <0>         0.1333
     27 C18         7.7118   -5.5679   -2.8829 C.ar      1 <0>        -0.1112
     28 C19         8.7493   -4.8369   -2.3386 C.ar      1 <0>        -0.1087
     29 C20         8.5596   -4.1341   -1.1626 C.ar      1 <0>        -0.0924
     30 C21         7.3316   -4.1612   -0.5279 C.ar      1 <0>        -0.1046
     31 C22         6.2880   -4.8858   -1.0700 C.ar      1 <0>        -0.1010
     32 C23         4.9481   -4.9097   -0.3808 C.3       1 <0>        -0.1155
     33 C24         9.6941   -3.3375   -0.5715 C.3       1 <0>        -0.1150
     34 H2          0.8666    2.0347   -0.3918 H         1 <0>         0.0565
     35 H3         -0.6426    2.0001   -1.3349 H         1 <0>         0.0566
     36 H4         -0.7051    2.0329    0.4437 H         1 <0>         0.0581
     37 H5          0.3471   -0.2111    0.5220 H         1 <0>         0.0648
     38 H6         -1.1621   -0.2457   -0.4210 H         1 <0>         0.0650
     39 H7          0.1448   -0.0539   -2.5196 H         1 <0>         0.0753
     40 H8          1.6540   -0.0193   -1.5765 H         1 <0>         0.0751
     41 H9          1.1345   -2.2651   -0.6627 H         1 <0>         0.0634
     42 H10        -0.3747   -2.2997   -1.6057 H         1 <0>         0.0633
     43 H11         0.3617   -4.1768   -1.0536 H         1 <0>         0.1323
     44 H12         0.5614   -6.6189   -1.2852 H         1 <0>         0.1299
     45 H13         1.7856   -7.5802   -3.1920 H         1 <0>         0.1154
     46 H14         2.6096   -3.6591   -4.6514 H         1 <0>         0.1356
     47 H15         3.0964  -10.1257   -5.1463 H         1 <0>         0.4462
     48 H16         5.1933   -9.4619   -3.1563 H         1 <0>         0.0996
     49 H17         5.5749  -10.0625   -4.7879 H         1 <0>         0.0948
     50 H18         6.2614   -8.5200   -4.2241 H         1 <0>         0.0961
     51 H19         4.7879   -6.7801   -2.2143 H         1 <0>         0.4107
     52 H20         7.8607   -6.1167   -3.8010 H         1 <0>         0.1391
     53 H21         9.7099   -4.8143   -2.8316 H         1 <0>         0.1251
     54 H22         7.1869   -3.6117    0.3905 H         1 <0>         0.1247
     55 H23         4.9190   -5.7370    0.3283 H         1 <0>         0.0704
     56 H24         4.7960   -3.9702    0.1505 H         1 <0>         0.0701
     57 H25         4.1601   -5.0393   -1.1228 H         1 <0>         0.0643
     58 H26         9.6709   -2.3226   -0.9686 H         1 <0>         0.0704
     59 H27         9.5895   -3.3058    0.5130 H         1 <0>         0.0658
     60 H28        10.6424   -3.8078   -0.8315 H         1 <0>         0.0667
@<TRIPOS>BOND
     1    1    2 1
     2    1   34 1
     3    1   35 1
     4    1   36 1
     5    2    3 1
     6    2   37 1
     7    2   38 1
     8    3    4 1
     9    3   39 1
    10    3   40 1
    11    4    5 1
    12    4   41 1
    13    4   42 1
    14    5    6 1
    15    6   11 ar
    16    6    7 ar
    17    7    8 ar
    18    7   43 1
    19    8    9 ar
    20    8   44 1
    21    9   10 ar
    22    9   45 1
    23   10   11 ar
    24   10   12 1
    25   11   46 1
    26   12   13 1
    27   12   18 1
    28   12   14 1
    29   14   15 2
    30   14   23 1
    31   15   16 1
    32   15   22 1
    33   16   17 1
    34   16   47 1
    35   17   21 2
    36   17   18 1
    37   18   19 1
    38   19   20 2
    39   20   21 1
    40   22   48 1
    41   22   49 1
    42   22   50 1
    43   23   24 2
    44   23   25 am
    45   25   26 1
    46   25   51 1
    47   26   31 ar
    48   26   27 ar
    49   27   28 ar
    50   27   52 1
    51   28   29 ar
    52   28   53 1
    53   29   30 ar
    54   29   33 1
    55   30   31 ar
    56   30   54 1
    57   31   32 1
    58   32   55 1
    59   32   56 1
    60   32   57 1
    61   33   58 1
    62   33   59 1
    63   33   60 1
@<TRIPOS>MOLECULE
ZINC05005411
   50    52     0     0     0
SMALL
USER_CHARGES
N-[1-(allylcarbamoyl)-2-[5-(3-nitrophenyl)-2-furyl]-vinyl]benzamide
@<TRIPOS>ATOM
      1 C1          6.2407    4.5608   -3.6035 C.2       1 <0>        -0.1546
      2 C2          5.0386    4.9204   -3.2272 C.2       1 <0>        -0.1822
      3 C3          4.7622    5.2239   -1.7771 C.3       1 <0>         0.1546
      4 N1          4.2088    6.5751   -1.6579 N.am      1 <0>        -0.7016
      5 C4          3.9802    7.1046   -0.4398 C.2       1 <0>         0.5829
      6 O1          4.3169    6.5002    0.5577 O.2       1 <0>        -0.5143
      7 C5          3.3147    8.4308   -0.3175 C.2       1 <0>         0.1216
      8 C6          1.9232    8.5056   -0.1705 C.2       1 <0>        -0.1496
      9 C7          1.1590    7.3486   -0.2056 C.2       1 <0>         0.0415
     10 C8         -0.3101    7.2734   -0.1900 C.2       1 <0>        -0.1812
     11 C9         -0.6251    5.9539   -0.2370 C.2       1 <0>        -0.1441
     12 C10         0.5902    5.2259   -0.2803 C.2       1 <0>        -0.0244
     13 O2          1.6260    6.0817   -0.2545 O.3       1 <0>        -0.1283
     14 C11         0.6966    3.8139   -0.3361 C.ar      1 <0>         0.0024
     15 C12        -0.4594    3.0198   -0.4656 C.ar      1 <0>        -0.0559
     16 C13        -0.3445    1.6601   -0.5237 C.ar      1 <0>        -0.1041
     17 C14         0.9042    1.0600   -0.4441 C.ar      1 <0>        -0.0598
     18 C15         2.0496    1.8322   -0.3164 C.ar      1 <0>         0.0104
     19 C16         1.9589    3.1943   -0.2620 C.ar      1 <0>        -0.0571
     20 N2          3.3749    1.1778   -0.2383 N.pl3     1 <0>        -0.0246
     21 O3          3.4589   -0.1356   -0.1896 O.2       1 <0>        -0.1633
     22 O4          4.4701    1.9089   -0.2175 O.3       1 <0>        -0.1565
     23 N3          4.0526    9.5624   -0.3482 N.am      1 <0>        -0.6326
     24 C17         5.3752    9.4978   -0.5994 C.2       1 <0>         0.5508
     25 O5          5.8888    8.4334   -0.8811 O.2       1 <0>        -0.4793
     26 C18         6.2004   10.7214   -0.5323 C.ar      1 <0>        -0.1423
     27 C19         5.6123   11.9475   -0.2145 C.ar      1 <0>        -0.0842
     28 C20         6.3896   13.0850   -0.1483 C.ar      1 <0>        -0.1252
     29 C21         7.7473   13.0151   -0.4068 C.ar      1 <0>        -0.0840
     30 C22         8.3355   11.8044   -0.7279 C.ar      1 <0>        -0.1250
     31 C23         7.5711   10.6581   -0.7920 C.ar      1 <0>        -0.0511
     32 H1          6.4594    4.4219   -4.6520 H         1 <0>         0.1031
     33 H2          7.0132    4.4032   -2.8653 H         1 <0>         0.1032
     34 H3          4.2456    4.9994   -3.9561 H         1 <0>         0.1117
     35 H4          5.6904    5.1600   -1.2093 H         1 <0>         0.0801
     36 H5          4.0459    4.5020   -1.3850 H         1 <0>         0.0684
     37 H6          4.0069    7.0886   -2.4556 H         1 <0>         0.3980
     38 H7          1.4457    9.4641   -0.0300 H         1 <0>         0.1653
     39 H8         -1.0006    8.1028   -0.1497 H         1 <0>         0.1624
     40 H9         -1.6206    5.5351   -0.2409 H         1 <0>         0.1591
     41 H10        -1.4326    3.4846   -0.5234 H         1 <0>         0.1503
     42 H11        -1.2291    1.0494   -0.6278 H         1 <0>         0.1561
     43 H12         0.9853   -0.0161   -0.4862 H         1 <0>         0.1582
     44 H13         2.8520    3.7935   -0.1630 H         1 <0>         0.1592
     45 H14         3.6304   10.4212   -0.1895 H         1 <0>         0.4196
     46 H15         4.5520   12.0042   -0.0169 H         1 <0>         0.1263
     47 H16         5.9368   14.0332    0.1013 H         1 <0>         0.1338
     48 H17         8.3505   13.9097   -0.3581 H         1 <0>         0.1321
     49 H18         9.3957   11.7569   -0.9285 H         1 <0>         0.1349
     50 H19         8.0314    9.7138   -1.0427 H         1 <0>         0.1392
@<TRIPOS>BOND
     1    1    2 2
     2    1   32 1
     3    1   33 1
     4    2    3 1
     5    2   34 1
     6    3    4 1
     7    3   35 1
     8    3   36 1
     9    4    5 am
    10    4   37 1
    11    5    6 2
    12    5    7 1
    13    7    8 2
    14    7   23 1
    15    8    9 1
    16    8   38 1
    17    9   13 1
    18    9   10 2
    19   10   11 1
    20   10   39 1
    21   11   12 2
    22   11   40 1
    23   12   13 1
    24   12   14 1
    25   14   19 ar
    26   14   15 ar
    27   15   16 ar
    28   15   41 1
    29   16   17 ar
    30   16   42 1
    31   17   18 ar
    32   17   43 1
    33   18   19 ar
    34   18   20 1
    35   19   44 1
    36   20   21 2
    37   20   22 1
    38   23   24 am
    39   23   45 1
    40   24   25 2
    41   24   26 1
    42   26   31 ar
    43   26   27 ar
    44   27   28 ar
    45   27   46 1
    46   28   29 ar
    47   28   47 1
    48   29   30 ar
    49   29   48 1
    50   30   31 ar
    51   30   49 1
    52   31   50 1
@<TRIPOS>MOLECULE
ZINC11152358
   62    65     0     0     0
SMALL
USER_CHARGES
2-[[4-cyclohexyl-5-(2-furyl)-1,2,4-triazol-3-yl]sulfanyl]-N-[(2-methylcyclohexyl)carbamoyl]acetamide
@<TRIPOS>ATOM
      1 C1          9.9100   -4.5610    1.9304 C.3       1 <0>        -0.1485
      2 C2         10.0509   -5.0557    0.4894 C.3       1 <0>        -0.0997
      3 H1         10.6120   -5.9901    0.4793 H         1 <0>         0.0891
      4 C3         10.7933   -4.0060   -0.3399 C.3       1 <0>        -0.1154
      5 C4         10.9342   -4.5007   -1.7808 C.3       1 <0>        -0.1222
      6 C5          9.5451   -4.7336   -2.3782 C.3       1 <0>        -0.1179
      7 C6          8.8027   -5.7833   -1.5489 C.3       1 <0>        -0.1342
      8 C7          8.6617   -5.2886   -0.1080 C.3       1 <0>         0.1673
      9 H2          8.1328   -6.0364    0.4828 H         1 <0>         0.0920
     10 N1          7.9075   -4.0327   -0.0944 N.am      1 <0>        -0.7258
     11 C8          6.5600   -4.0560   -0.0815 C.2       1 <0>         0.6952
     12 O1          5.9706   -5.1188   -0.0812 O.2       1 <0>        -0.5254
     13 N2          5.8662   -2.9006   -0.0691 N.am      1 <0>        -0.6863
     14 C9          4.5187   -2.9239   -0.0562 C.2       1 <0>         0.5406
     15 O2          3.9307   -3.9841   -0.0558 O.2       1 <0>        -0.4499
     16 C10         3.7429   -1.6320   -0.0422 C.3       1 <0>        -0.1615
     17 S1          1.9694   -1.9934   -0.0269 S.3       1 <0>         0.1014
     18 C11         1.3232   -0.3542   -0.0125 C.2       1 <0>         0.1489
     19 N3          2.0219    0.7587   -0.0132 N.2       1 <0>        -0.2853
     20 N4          1.2357    1.7750   -0.0002 N.2       1 <0>        -0.2497
     21 C12        -0.0166    1.3734    0.0096 C.2       1 <0>         0.2613
     22 N5          0.0021   -0.0041    0.0020 N.pl3     1 <0>        -0.4471
     23 C13        -1.1528   -0.9054    0.0086 C.3       1 <0>         0.1306
     24 C14        -1.0988   -1.7944    1.2526 C.3       1 <0>        -0.1350
     25 C15        -2.3050   -2.7357    1.2595 C.3       1 <0>        -0.1131
     26 C16        -2.2758   -3.6113    0.0052 C.3       1 <0>        -0.1270
     27 C17        -2.3298   -2.7223   -1.2388 C.3       1 <0>        -0.1130
     28 C18        -1.1236   -1.7810   -1.2457 C.3       1 <0>        -0.1342
     29 C19        -1.2110    2.2323    0.0202 C.2       1 <0>         0.0355
     30 C20        -1.2372    3.5629    0.3130 C.2       1 <0>        -0.1320
     31 C21        -2.5788    3.9762    0.2010 C.2       1 <0>        -0.2109
     32 C22        -3.2988    2.8922   -0.1504 C.2       1 <0>        -0.0142
     33 O3         -2.4692    1.8417   -0.2637 O.3       1 <0>        -0.1752
     34 H3          9.3810   -5.3088    2.5212 H         1 <0>         0.0576
     35 H4         10.8996   -4.3951    2.3560 H         1 <0>         0.0590
     36 H5          9.3488   -3.6266    1.9405 H         1 <0>         0.0539
     37 H6         10.2322   -3.0716   -0.3298 H         1 <0>         0.0585
     38 H7         11.7830   -3.8401    0.0857 H         1 <0>         0.0683
     39 H8         11.4631   -3.7529   -2.3716 H         1 <0>         0.0634
     40 H9         11.4954   -5.4351   -1.7909 H         1 <0>         0.0648
     41 H10         8.9839   -3.7992   -2.3681 H         1 <0>         0.0594
     42 H11         9.6455   -5.0860   -3.4048 H         1 <0>         0.0629
     43 H12         9.3638   -6.7177   -1.5590 H         1 <0>         0.0748
     44 H13         7.8130   -5.9492   -1.9746 H         1 <0>         0.0698
     45 H14         8.3780   -3.1844   -0.0947 H         1 <0>         0.3973
     46 H15         6.3366   -2.0523   -0.0693 H         1 <0>         0.4127
     47 H16         3.9877   -1.0515   -0.9317 H         1 <0>         0.1346
     48 H17         4.0049   -1.0604    0.8482 H         1 <0>         0.1347
     49 H18        -2.0715   -0.3187    0.0209 H         1 <0>         0.1162
     50 H19        -0.1802   -2.3810    1.2404 H         1 <0>         0.0831
     51 H20        -1.1197   -1.1706    2.1462 H         1 <0>         0.0727
     52 H21        -3.2236   -2.1491    1.2718 H         1 <0>         0.0672
     53 H22        -2.2665   -3.3691    2.1458 H         1 <0>         0.0758
     54 H23        -3.1351   -4.2819    0.0102 H         1 <0>         0.0712
     55 H24        -1.3572   -4.1980   -0.0070 H         1 <0>         0.0697
     56 H25        -3.2484   -2.1357   -1.2265 H         1 <0>         0.0675
     57 H26        -2.3089   -3.3461   -2.1324 H         1 <0>         0.0758
     58 H27        -1.1621   -1.1476   -2.1319 H         1 <0>         0.0729
     59 H28        -0.2050   -2.3676   -1.2579 H         1 <0>         0.0827
     60 H29        -0.3925    4.1810    0.5792 H         1 <0>         0.1625
     61 H30        -2.9590    4.9735    0.3656 H         1 <0>         0.1599
     62 H31        -4.3656    2.8725   -0.3172 H         1 <0>         0.2128
@<TRIPOS>BOND
     1    1    2 1
     2    1   34 1
     3    1   35 1
     4    1   36 1
     5    2    3 1
     6    2    8 1
     7    2    4 1
     8    4    5 1
     9    4   37 1
    10    4   38 1
    11    5    6 1
    12    5   39 1
    13    5   40 1
    14    6    7 1
    15    6   41 1
    16    6   42 1
    17    7    8 1
    18    7   43 1
    19    7   44 1
    20    8    9 1
    21    8   10 1
    22   10   11 am
    23   10   45 1
    24   11   12 2
    25   11   13 am
    26   13   14 am
    27   13   46 1
    28   14   15 2
    29   14   16 1
    30   16   17 1
    31   16   47 1
    32   16   48 1
    33   17   18 1
    34   18   22 1
    35   18   19 2
    36   19   20 1
    37   20   21 2
    38   21   22 1
    39   21   29 1
    40   22   23 1
    41   23   28 1
    42   23   24 1
    43   23   49 1
    44   24   25 1
    45   24   50 1
    46   24   51 1
    47   25   26 1
    48   25   52 1
    49   25   53 1
    50   26   27 1
    51   26   54 1
    52   26   55 1
    53   27   28 1
    54   27   56 1
    55   27   57 1
    56   28   58 1
    57   28   59 1
    58   29   33 1
    59   29   30 2
    60   30   31 1
    61   30   60 1
    62   31   32 2
    63   31   61 1
    64   32   33 1
    65   32   62 1
@<TRIPOS>MOLECULE
ZINC27533149
   54    57     0     0     0
SMALL
USER_CHARGES
ethyl (4R,7R)-2-amino-4-(4-nitrophenyl)-5-oxo-7-phenyl-4,6,7,8-tetrahydrochromene-3-carboxylate
@<TRIPOS>ATOM
      1 C1          0.0129    6.5423   -3.0893 C.3       1 <0>        -0.1554
      2 C2         -1.2180    5.6794   -3.3743 C.3       1 <0>         0.0597
      3 O1         -1.6407    5.0396   -2.1685 O.3       1 <0>        -0.3392
      4 C3         -2.7231    4.2357   -2.2478 C.2       1 <0>         0.5484
      5 O2         -3.2916    4.0833   -3.3142 O.2       1 <0>        -0.5524
      6 C4         -3.1927    3.5759   -1.1016 C.2       1 <0>        -0.4139
      7 C5         -4.3519    2.8695   -1.1555 C.2       1 <0>         0.4834
      8 O3         -4.8259    2.2234   -0.0803 O.3       1 <0>        -0.2466
      9 C6         -4.4317    2.5936    1.1529 C.2       1 <0>         0.1710
     10 C7         -3.2906    3.2789    1.3476 C.2       1 <0>        -0.2658
     11 C8         -2.4107    3.6545    0.1798 C.3       1 <0>         0.0866
     12 H1         -2.0491    4.6846    0.3143 H         1 <0>         0.1102
     13 C9         -1.2408    2.7071    0.1104 C.ar      1 <0>        -0.0106
     14 C10        -1.4575    1.3526   -0.0610 C.ar      1 <0>        -0.1113
     15 C11        -0.3845    0.4830   -0.1197 C.ar      1 <0>        -0.0550
     16 C12         0.9055    0.9691   -0.0177 C.ar      1 <0>        -0.0492
     17 C13         1.1224    2.3242    0.1484 C.ar      1 <0>        -0.0527
     18 C14         0.0493    3.1932    0.2125 C.ar      1 <0>        -0.0936
     19 N1          2.0546    0.0387   -0.0868 N.pl3     1 <0>         0.0293
     20 O4          1.8635   -1.1553   -0.2336 O.2       1 <0>        -0.1635
     21 O5          3.1913    0.4670    0.0031 O.3       1 <0>        -0.1602
     22 C15        -2.8811    3.6680    2.6380 C.2       1 <0>         0.4032
     23 O6         -1.8336    4.2673    2.7760 O.2       1 <0>        -0.4456
     24 C16        -3.7178    3.3540    3.8484 C.3       1 <0>        -0.1624
     25 C17        -5.1878    3.2656    3.4239 C.3       1 <0>        -0.0362
     26 H2         -5.5463    4.2416    3.0649 H         1 <0>         0.0963
     27 C18        -5.3109    2.2126    2.3210 C.3       1 <0>        -0.0765
     28 C19        -6.0327    2.8633    4.6050 C.ar      1 <0>        -0.0854
     29 C20        -5.8030    1.6573    5.2404 C.ar      1 <0>        -0.1135
     30 C21        -6.5755    1.2900    6.3263 C.ar      1 <0>        -0.1159
     31 C22        -7.5835    2.1247    6.7715 C.ar      1 <0>        -0.1164
     32 C23        -7.8163    3.3285    6.1331 C.ar      1 <0>        -0.1164
     33 C24        -7.0413    3.6976    5.0496 C.ar      1 <0>        -0.1096
     34 N2         -5.0507    2.8165   -2.3317 N.pl3     1 <0>        -0.8180
     35 H3          0.3383    7.0348   -4.0175 H         1 <0>         0.0811
     36 H4          0.8255    5.9070   -2.7070 H         1 <0>         0.0675
     37 H5         -0.2402    7.3054   -2.3385 H         1 <0>         0.0682
     38 H6         -2.0306    6.3147   -3.7566 H         1 <0>         0.0680
     39 H7         -0.9650    4.9163   -4.1251 H         1 <0>         0.0673
     40 H8         -2.4652    0.9734   -0.1451 H         1 <0>         0.1340
     41 H9         -0.5540   -0.5756   -0.2498 H         1 <0>         0.1513
     42 H10         2.1303    2.7040    0.2277 H         1 <0>         0.1537
     43 H11         0.2187    4.2519    0.3419 H         1 <0>         0.1498
     44 H12        -3.3956    2.3939    4.2778 H         1 <0>         0.1093
     45 H13        -3.5934    4.1505    4.5968 H         1 <0>         0.1077
     46 H14        -6.3577    2.1538    1.9882 H         1 <0>         0.1066
     47 H15        -4.9955    1.2347    2.7137 H         1 <0>         0.1128
     48 H16        -5.0180    1.0034    4.8903 H         1 <0>         0.1229
     49 H17        -6.3938    0.3493    6.8248 H         1 <0>         0.1243
     50 H18        -8.1892    1.8362    7.6177 H         1 <0>         0.1233
     51 H19        -8.6040    3.9806    6.4807 H         1 <0>         0.1243
     52 H20        -7.2234    4.6380    4.5507 H         1 <0>         0.1237
     53 H21        -5.9906    2.2478   -2.3879 H         1 <0>         0.4195
     54 H22        -4.6722    3.3426   -3.2205 H         1 <0>         0.4618
@<TRIPOS>BOND
     1    1    2 1
     2    1   35 1
     3    1   36 1
     4    1   37 1
     5    2    3 1
     6    2   38 1
     7    2   39 1
     8    3    4 1
     9    4    5 2
    10    4    6 1
    11    6   11 1
    12    6    7 2
    13    7    8 1
    14    7   34 1
    15    8    9 1
    16    9   27 1
    17    9   10 2
    18   10   11 1
    19   10   22 1
    20   11   12 1
    21   11   13 1
    22   13   18 ar
    23   13   14 ar
    24   14   15 ar
    25   14   40 1
    26   15   16 ar
    27   15   41 1
    28   16   17 ar
    29   16   19 1
    30   17   18 ar
    31   17   42 1
    32   18   43 1
    33   19   20 2
    34   19   21 1
    35   22   23 2
    36   22   24 1
    37   24   25 1
    38   24   44 1
    39   24   45 1
    40   25   26 1
    41   25   27 1
    42   25   28 1
    43   27   46 1
    44   27   47 1
    45   28   33 ar
    46   28   29 ar
    47   29   30 ar
    48   29   48 1
    49   30   31 ar
    50   30   49 1
    51   31   32 ar
    52   31   50 1
    53   32   33 ar
    54   32   51 1
    55   33   52 1
    56   34   53 1
    57   34   54 1
@<TRIPOS>MOLECULE
ZINC24478499
   62    65     0     0     0
SMALL
USER_CHARGES

@<TRIPOS>ATOM
      1 C1         -0.0187    1.5258    0.0104 C.3       1 <0>        -0.1462
      2 C2          0.0021   -0.0041    0.0020 C.3       1 <0>        -0.1181
      3 H1          0.5293   -0.3651    0.8851 H         1 <0>         0.1284
      4 C3          0.7074   -0.4901   -1.2379 C.2       1 <0>         0.5445
      5 O1          0.0667   -0.7817   -2.2249 O.2       1 <0>        -0.4462
      6 N1          2.0506   -0.6005   -1.2495 N.am      1 <0>        -0.6849
      7 C4          2.6815   -1.0352   -2.3584 C.2       1 <0>         0.6955
      8 O2          2.0391   -1.3275   -3.3478 O.2       1 <0>        -0.5242
      9 N2          4.0246   -1.1456   -2.3700 N.am      1 <0>        -0.7326
     10 C5          4.7104   -1.6181   -3.5753 C.3       1 <0>         0.1604
     11 C6          4.7311   -3.1479   -3.5837 C.3       1 <0>        -0.1310
     12 C7          5.4472   -3.6413   -4.8425 C.3       1 <0>        -0.1179
     13 C8          6.8826   -3.1117   -4.8534 C.3       1 <0>        -0.1231
     14 C9          6.8619   -1.5819   -4.8450 C.3       1 <0>        -0.1164
     15 C10         6.1457   -1.0885   -3.5862 C.3       1 <0>        -0.1261
     16 S1         -1.6997   -0.6320    0.0149 S.3       1 <0>         0.0862
     17 C11        -2.3349   -0.1100    1.5733 C.2       1 <0>         0.1563
     18 N3         -1.6895    0.5814    2.4856 N.2       1 <0>        -0.2844
     19 N4         -2.4483    0.7908    3.5013 N.2       1 <0>        -0.2498
     20 C12        -3.6279    0.2451    3.3003 C.2       1 <0>         0.2611
     21 N5         -3.5923   -0.3438    2.0554 N.pl3     1 <0>        -0.4459
     22 C13        -4.6750   -1.0718    1.3889 C.3       1 <0>         0.1309
     23 C14        -4.2268   -2.5074    1.1077 C.3       1 <0>        -0.1341
     24 C15        -5.3575   -3.2676    0.4117 C.3       1 <0>        -0.1130
     25 C16        -5.7023   -2.5734   -0.9074 C.3       1 <0>        -0.1270
     26 C17        -6.1506   -1.1378   -0.6262 C.3       1 <0>        -0.1130
     27 C18        -5.0199   -0.3775    0.0698 C.3       1 <0>        -0.1353
     28 C19        -4.7706    0.2651    4.2266 C.2       1 <0>         0.0358
     29 C20        -4.9106    1.0835    5.3071 C.2       1 <0>        -0.1320
     30 C21        -6.1465    0.7626    5.9012 C.2       1 <0>        -0.2109
     31 C22        -6.6953   -0.2239    5.1647 C.2       1 <0>        -0.0142
     32 O3         -5.8644   -0.5187    4.1512 O.3       1 <0>        -0.1754
     33 H2          1.0039    1.9031    0.0027 H         1 <0>         0.0750
     34 H3         -0.5459    1.8868   -0.8726 H         1 <0>         0.0754
     35 H4         -0.5289    1.8773    0.9072 H         1 <0>         0.0916
     36 H5          2.5633   -0.3672   -0.4598 H         1 <0>         0.4126
     37 H6          4.5373   -0.9123   -1.5803 H         1 <0>         0.3986
     38 H7          4.1832   -1.2570   -4.4584 H         1 <0>         0.0918
     39 H8          5.2583   -3.5090   -2.7007 H         1 <0>         0.0642
     40 H9          3.7085   -3.5252   -3.5760 H         1 <0>         0.0685
     41 H10         5.4620   -4.7312   -4.8485 H         1 <0>         0.0663
     42 H11         4.9201   -3.2803   -5.7256 H         1 <0>         0.0657
     43 H12         7.4098   -3.4728   -3.9703 H         1 <0>         0.0630
     44 H13         7.3928   -3.4633   -5.7502 H         1 <0>         0.0653
     45 H14         7.8845   -1.2046   -4.8527 H         1 <0>         0.0691
     46 H15         6.3347   -1.2208   -5.7280 H         1 <0>         0.0665
     47 H16         6.1310    0.0014   -3.5802 H         1 <0>         0.0701
     48 H17         6.6729   -1.4496   -2.7031 H         1 <0>         0.0693
     49 H18        -5.5542   -1.0852    2.0331 H         1 <0>         0.1162
     50 H19        -3.3476   -2.4939    0.4635 H         1 <0>         0.0821
     51 H20        -3.9811   -3.0020    2.0475 H         1 <0>         0.0726
     52 H21        -5.0381   -4.2903    0.2114 H         1 <0>         0.0754
     53 H22        -6.2366   -3.2811    1.0559 H         1 <0>         0.0676
     54 H23        -4.8232   -2.5599   -1.5516 H         1 <0>         0.0696
     55 H24        -6.5079   -3.1150   -1.4033 H         1 <0>         0.0712
     56 H25        -6.3963   -0.6432   -1.5659 H         1 <0>         0.0760
     57 H26        -7.0297   -1.1512    0.0180 H         1 <0>         0.0670
     58 H27        -5.3392    0.6452    0.2702 H         1 <0>         0.0727
     59 H28        -4.1407   -0.3641   -0.5744 H         1 <0>         0.0842
     60 H29        -4.2094    1.8330    5.6431 H         1 <0>         0.1624
     61 H30        -6.5737    1.2202    6.7812 H         1 <0>         0.1598
     62 H31        -7.6475   -0.6964    5.3555 H         1 <0>         0.2128
@<TRIPOS>BOND
     1    1    2 1
     2    1   33 1
     3    1   34 1
     4    1   35 1
     5    2    3 1
     6    2    4 1
     7    2   16 1
     8    4    5 2
     9    4    6 am
    10    6    7 am
    11    6   36 1
    12    7    8 2
    13    7    9 am
    14    9   10 1
    15    9   37 1
    16   10   15 1
    17   10   11 1
    18   10   38 1
    19   11   12 1
    20   11   39 1
    21   11   40 1
    22   12   13 1
    23   12   41 1
    24   12   42 1
    25   13   14 1
    26   13   43 1
    27   13   44 1
    28   14   15 1
    29   14   45 1
    30   14   46 1
    31   15   47 1
    32   15   48 1
    33   16   17 1
    34   17   21 1
    35   17   18 2
    36   18   19 1
    37   19   20 2
    38   20   21 1
    39   20   28 1
    40   21   22 1
    41   22   27 1
    42   22   23 1
    43   22   49 1
    44   23   24 1
    45   23   50 1
    46   23   51 1
    47   24   25 1
    48   24   52 1
    49   24   53 1
    50   25   26 1
    51   25   54 1
    52   25   55 1
    53   26   27 1
    54   26   56 1
    55   26   57 1
    56   27   58 1
    57   27   59 1
    58   28   32 1
    59   28   29 2
    60   29   30 1
    61   29   60 1
    62   30   31 2
    63   30   61 1
    64   31   32 1
    65   31   62 1
@<TRIPOS>MOLECULE
ZINC42342089
   52    54     0     0     0
SMALL
USER_CHARGES

@<TRIPOS>ATOM
      1 C1          3.6742    0.0431    1.2601 C.3       1 <0>        -0.1121
      2 C2          2.4926   -0.7305    0.7345 C.ar      1 <0>        -0.0954
      3 C3          2.5916   -1.4165   -0.4602 C.ar      1 <0>        -0.1132
      4 C4          1.5077   -2.1262   -0.9435 C.ar      1 <0>        -0.1159
      5 C5          0.3218   -2.1520   -0.2327 C.ar      1 <0>        -0.1122
      6 C6          0.2166   -1.4685    0.9629 C.ar      1 <0>        -0.0705
      7 C7          1.3049   -0.7592    1.4535 C.ar      1 <0>         0.1320
      8 N1          1.2034   -0.0704    2.6673 N.am      1 <0>        -0.6655
      9 C8          0.6465   -0.6702    3.7380 C.2       1 <0>         0.5033
     10 O1          0.2900   -1.8274    3.6676 O.2       1 <0>        -0.5080
     11 C9          0.4668    0.0968    5.0227 C.3       1 <0>         0.1043
     12 N2         -0.1553   -0.7704    6.0263 N.am      1 <0>        -0.7166
     13 C10        -0.4139   -0.2949    7.2606 C.2       1 <0>         0.5694
     14 O2         -0.1309    0.8538    7.5412 O.2       1 <0>        -0.5050
     15 C11        -1.0405   -1.1683    8.2712 C.ar      1 <0>        -0.1673
     16 C12        -1.3621   -2.4905    7.9549 C.ar      1 <0>         0.0175
     17 C13        -1.9466   -3.3011    8.9034 C.ar      1 <0>        -0.0917
     18 C14        -2.2175   -2.8113   10.1708 C.ar      1 <0>         0.0116
     19 C15        -1.9050   -1.5068   10.4969 C.ar      1 <0>        -0.2030
     20 C16        -1.3112   -0.6780    9.5561 C.ar      1 <0>         0.2334
     21 O3         -0.9984    0.6023    9.8766 O.3       1 <0>        -0.2081
     22 C17        -1.2604    1.0256   11.1410 C.ar      1 <0>         0.0574
     23 C18        -0.2927    0.9067   12.1283 C.ar      1 <0>        -0.1175
     24 C19        -0.5615    1.3382   13.4127 C.ar      1 <0>        -0.1050
     25 C20        -1.7936    1.8883   13.7150 C.ar      1 <0>        -0.1074
     26 C21        -2.7598    2.0075   12.7331 C.ar      1 <0>        -0.1051
     27 C22        -2.4941    1.5828   11.4457 C.ar      1 <0>        -0.1191
     28 N3         -2.2873   -4.7017    8.5666 N.pl3     1 <0>         0.0382
     29 O4         -2.0525   -5.1319    7.4614 O.2       1 <0>        -0.1542
     30 O5         -2.8003   -5.4154    9.3967 O.3       1 <0>        -0.1549
     31 C23        -1.0763   -1.4968    1.7366 C.3       1 <0>        -0.1060
     32 H1          4.2832   -0.6064    1.8889 H         1 <0>         0.0727
     33 H2          4.2728    0.4047    0.4240 H         1 <0>         0.0717
     34 H3          3.3213    0.8907    1.8477 H         1 <0>         0.0610
     35 H4          3.5164   -1.3983   -1.0177 H         1 <0>         0.1268
     36 H5          1.5873   -2.6613   -1.8782 H         1 <0>         0.1256
     37 H6         -0.5231   -2.7070   -0.6129 H         1 <0>         0.1266
     38 H7          1.5338    0.8389    2.7380 H         1 <0>         0.4120
     39 H8          1.4387    0.4322    5.3846 H         1 <0>         0.1065
     40 H9         -0.1722    0.9614    4.8433 H         1 <0>         0.1064
     41 H10        -0.3812   -1.6868    5.8024 H         1 <0>         0.4118
     42 H11        -1.1531   -2.8766    6.9681 H         1 <0>         0.1653
     43 H12        -2.6762   -3.4537   10.9079 H         1 <0>         0.1647
     44 H13        -2.1195   -1.1321   11.4869 H         1 <0>         0.1604
     45 H14         0.6696    0.4768   11.8929 H         1 <0>         0.1341
     46 H15         0.1912    1.2456   14.1817 H         1 <0>         0.1353
     47 H16        -2.0017    2.2250   14.7198 H         1 <0>         0.1328
     48 H17        -3.7215    2.4372   12.9718 H         1 <0>         0.1352
     49 H18        -3.2476    1.6802   10.6781 H         1 <0>         0.1341
     50 H19        -1.1200   -2.4047    2.3381 H         1 <0>         0.0927
     51 H20        -1.1281   -0.6255    2.3895 H         1 <0>         0.0518
     52 H21        -1.9160   -1.4805    1.0418 H         1 <0>         0.0589
@<TRIPOS>BOND
     1    1    2 1
     2    1   32 1
     3    1   33 1
     4    1   34 1
     5    2    7 ar
     6    2    3 ar
     7    3    4 ar
     8    3   35 1
     9    4    5 ar
    10    4   36 1
    11    5    6 ar
    12    5   37 1
    13    6    7 ar
    14    6   31 1
    15    7    8 1
    16    8    9 am
    17    8   38 1
    18    9   10 2
    19    9   11 1
    20   11   12 1
    21   11   39 1
    22   11   40 1
    23   12   13 am
    24   12   41 1
    25   13   14 2
    26   13   15 1
    27   15   20 ar
    28   15   16 ar
    29   16   17 ar
    30   16   42 1
    31   17   18 ar
    32   17   28 1
    33   18   19 ar
    34   18   43 1
    35   19   20 ar
    36   19   44 1
    37   20   21 1
    38   21   22 1
    39   22   27 ar
    40   22   23 ar
    41   23   24 ar
    42   23   45 1
    43   24   25 ar
    44   24   46 1
    45   25   26 ar
    46   25   47 1
    47   26   27 ar
    48   26   48 1
    49   27   49 1
    50   28   29 2
    51   28   30 1
    52   31   50 1
    53   31   51 1
    54   31   52 1
@<TRIPOS>MOLECULE
ZINC48373852
   51    53     0     0     0
SMALL
USER_CHARGES

@<TRIPOS>ATOM
      1 C1         -0.0187    1.5258    0.0104 C.3       1 <0>        -0.1520
      2 C2          0.0021   -0.0041    0.0020 C.3       1 <0>         0.0513
      3 O1          0.6709   -0.4649   -1.1737 O.3       1 <0>        -0.3046
      4 C3          0.7768   -1.8110   -1.3363 C.ar      1 <0>         0.1188
      5 C4          0.2446   -2.6647   -0.3898 C.ar      1 <0>        -0.1572
      6 C5          0.3550   -4.0489   -0.5607 C.ar      1 <0>        -0.0538
      7 C6          1.0041   -4.5609   -1.6893 C.ar      1 <0>        -0.0992
      8 C7          1.5322   -3.7022   -2.6286 C.ar      1 <0>        -0.1541
      9 C8          1.4175   -2.3288   -2.4609 C.ar      1 <0>         0.0843
     10 O2          1.9356   -1.4871   -3.3929 O.3       1 <0>        -0.3077
     11 C9          2.5787   -2.0844   -4.5206 C.3       1 <0>         0.4099
     12 F1          3.6520   -2.8685   -4.0841 F         1 <0>        -0.1980
     13 F2          1.6630   -2.8885   -5.2078 F         1 <0>        -0.1980
     14 C10        -0.2093   -4.9634    0.4439 C.2       1 <0>        -0.0354
     15 C11        -0.1018   -6.2961    0.2775 C.2       1 <0>        -0.1644
     16 C12        -0.6648   -7.2085    1.2798 C.2       1 <0>         0.5338
     17 O3         -1.2304   -6.7600    2.2640 O.2       1 <0>        -0.5938
     18 N1         -0.5581   -8.5330    1.1144 N.2       1 <0>        -0.6526
     19 C13        -1.0683   -9.3598    2.0226 C.2       1 <0>         0.6205
     20 N2         -1.7264   -9.0019    3.1597 N.pl3     1 <0>        -0.6256
     21 H1         -1.9065   -8.0946    3.4518 H         1 <0>         0.4521
     22 C14        -2.0923  -10.1535    3.8235 C.2       1 <0>         0.3287
     23 N3         -1.6823  -11.1821    3.1341 N.2       1 <0>        -0.2406
     24 N4         -1.0342  -10.7114    1.9843 N.pl3     1 <0>        -0.4882
     25 C15        -2.8274  -10.2128    5.1053 C.ar      1 <0>        -0.0833
     26 C16        -3.2171   -9.0361    5.7450 C.ar      1 <0>        -0.0480
     27 C17        -3.9026   -9.0975    6.9405 C.ar      1 <0>        -0.1549
     28 C18        -4.2058  -10.3228    7.5086 C.ar      1 <0>        -0.0490
     29 C19        -3.8246  -11.4952    6.8843 C.ar      1 <0>        -0.2112
     30 C20        -3.1409  -11.4501    5.6798 C.ar      1 <0>         0.1782
     31 O4         -2.7710  -12.6018    5.0623 O.3       1 <0>        -0.2891
     32 C21        -3.1253  -13.8266    5.7076 C.3       1 <0>         0.0222
     33 H2          1.0039    1.9031    0.0027 H         1 <0>         0.0673
     34 H3         -0.5459    1.8868   -0.8726 H         1 <0>         0.0673
     35 H4         -0.5289    1.8773    0.9072 H         1 <0>         0.0799
     36 H5          0.5293   -0.3651    0.8851 H         1 <0>         0.0639
     37 H6         -1.0205   -0.3814    0.0098 H         1 <0>         0.0639
     38 H7         -0.2552   -2.2647    0.4800 H         1 <0>         0.1432
     39 H8          1.0914   -5.6288   -1.8242 H         1 <0>         0.1394
     40 H9          2.0333   -4.0985   -3.4993 H         1 <0>         0.1442
     41 H10         2.9464   -1.3028   -5.1854 H         1 <0>         0.1837
     42 H11        -0.7097   -4.5665    1.3148 H         1 <0>         0.1344
     43 H12         0.3986   -6.6930   -0.5934 H         1 <0>         0.1362
     44 H13        -2.9820   -8.0781    5.3051 H         1 <0>         0.1337
     45 H14        -4.2036   -8.1859    7.4354 H         1 <0>         0.1368
     46 H15        -4.7428  -10.3628    8.4448 H         1 <0>         0.1352
     47 H16        -4.0638  -12.4478    7.3334 H         1 <0>         0.1402
     48 H17        -4.2090  -13.8836    5.8090 H         1 <0>         0.0590
     49 H18        -2.7714  -14.6672    5.1108 H         1 <0>         0.1057
     50 H19        -2.6655  -13.8631    6.6952 H         1 <0>         0.0589
     51 H20        -0.6328  -11.2556    1.2888 H         1 <0>         0.4680
@<TRIPOS>BOND
     1    1    2 1
     2    1   33 1
     3    1   34 1
     4    1   35 1
     5    2    3 1
     6    2   36 1
     7    2   37 1
     8    3    4 1
     9    4    9 ar
    10    4    5 ar
    11    5    6 ar
    12    5   38 1
    13    6    7 ar
    14    6   14 1
    15    7    8 ar
    16    7   39 1
    17    8    9 ar
    18    8   40 1
    19    9   10 1
    20   10   11 1
    21   11   12 1
    22   11   13 1
    23   11   41 1
    24   14   15 2
    25   14   42 1
    26   15   16 1
    27   15   43 1
    28   16   17 2
    29   16   18 1
    30   18   19 2
    31   19   24 1
    32   19   20 1
    33   20   21 1
    34   20   22 1
    35   22   23 2
    36   22   25 1
    37   23   24 1
    38   24   51 1
    39   25   30 ar
    40   25   26 ar
    41   26   27 ar
    42   26   44 1
    43   27   28 ar
    44   27   45 1
    45   28   29 ar
    46   28   46 1
    47   29   30 ar
    48   29   47 1
    49   30   31 1
    50   31   32 1
    51   32   48 1
    52   32   49 1
    53   32   50 1
@<TRIPOS>MOLECULE
ZINC09964004
   46    50     0     0     0
SMALL
USER_CHARGES
methyl 2-[[5-(1H-indol-3-yl)-1,3,4-oxadiazol-2-yl]sulfanylmethyl]-4-oxo-3H-quinazoline-7-carboxylate
@<TRIPOS>ATOM
      1 C1         -8.1941  -10.2843    0.0223 C.3       1 <0>         0.0360
      2 O1         -6.7432  -10.2300    0.0091 O.3       1 <0>        -0.3515
      3 C2         -6.1770   -9.0080    0.0104 C.2       1 <0>         0.5070
      4 O2         -6.8759   -8.0150    0.0222 O.2       1 <0>        -0.4920
      5 C3         -4.7034   -8.8755   -0.0026 C.ar      1 <0>        -0.0771
      6 C4         -3.9022  -10.0240   -0.0166 C.ar      1 <0>        -0.0816
      7 C5         -2.5403   -9.9208   -0.0278 C.ar      1 <0>        -0.0494
      8 C6         -1.9398   -8.6631   -0.0272 C.ar      1 <0>        -0.1647
      9 C7         -2.7332   -7.4949   -0.0136 C.ar      1 <0>         0.1480
     10 C8         -4.1243   -7.6119   -0.0013 C.ar      1 <0>        -0.0370
     11 N1         -2.1219   -6.2837   -0.0079 N.2       1 <0>        -0.5082
     12 C9         -0.8284   -6.1734   -0.0242 C.2       1 <0>         0.4194
     13 N2          0.0124   -7.2403   -0.0377 N.am      1 <0>        -0.6435
     14 H1          0.9716   -7.0962   -0.0455 H         1 <0>         0.4257
     15 C10        -0.4759   -8.5025   -0.0399 C.2       1 <0>         0.5546
     16 O3          0.2659   -9.4672   -0.0515 O.2       1 <0>        -0.4928
     17 C11        -0.2289   -4.7908   -0.0218 C.3       1 <0>        -0.1027
     18 S1         -1.5544   -3.5584   -0.0031 S.3       1 <0>         0.1736
     19 C12        -0.5970   -2.0792   -0.0034 C.2       1 <0>         0.1010
     20 N3          0.7119   -2.0024   -0.0155 N.2       1 <0>        -0.2860
     21 N4          1.0693   -0.7665   -0.0180 N.2       1 <0>        -0.2747
     22 C13         0.0021   -0.0041    0.0020 C.2       1 <0>         0.2635
     23 O4         -1.0758   -0.8193    0.0079 O.3       1 <0>        -0.2048
     24 C14        -0.0179    1.4712    0.0101 C.2       1 <0>        -0.1289
     25 C15        -1.1183    2.2681    0.0190 C.2       1 <0>         0.1243
     26 N5         -0.7377    3.5782    0.0283 N.pl3     1 <0>        -0.5780
     27 H2         -1.3470    4.3329    0.0377 H         1 <0>         0.4260
     28 C16         0.6373    3.6750    0.0157 C.ar      1 <0>         0.0922
     29 C17         1.1512    2.3673    0.0038 C.ar      1 <0>        -0.0677
     30 C18         2.5288    2.1591   -0.0105 C.ar      1 <0>        -0.0652
     31 C19         3.3820    3.2405   -0.0124 C.ar      1 <0>        -0.1355
     32 C20         2.8757    4.5324   -0.0011 C.ar      1 <0>        -0.0933
     33 C21         1.5160    4.7536    0.0131 C.ar      1 <0>        -0.1254
     34 H3         -8.5846   -9.7797   -0.8614 H         1 <0>         0.0668
     35 H4         -8.5189  -11.3248    0.0198 H         1 <0>         0.1067
     36 H5         -8.5681   -9.7891    0.9185 H         1 <0>         0.0668
     37 H6         -4.3652  -10.9997   -0.0182 H         1 <0>         0.1523
     38 H7         -1.9302  -10.8119   -0.0386 H         1 <0>         0.1508
     39 H8         -4.7452   -6.7283    0.0088 H         1 <0>         0.1597
     40 H9          0.3791   -4.6569   -0.9166 H         1 <0>         0.1398
     41 H10         0.3950   -4.6668    0.8633 H         1 <0>         0.1397
     42 H11        -2.1398    1.9174    0.0212 H         1 <0>         0.1862
     43 H12         2.9258    1.1547   -0.0193 H         1 <0>         0.1351
     44 H13         4.4502    3.0821   -0.0227 H         1 <0>         0.1288
     45 H14         3.5542    5.3726   -0.0030 H         1 <0>         0.1303
     46 H15         1.1326    5.7632    0.0226 H         1 <0>         0.1256
@<TRIPOS>BOND
     1    1    2 1
     2    1   34 1
     3    1   35 1
     4    1   36 1
     5    2    3 1
     6    3    4 2
     7    3    5 1
     8    5   10 ar
     9    5    6 ar
    10    6    7 ar
    11    6   37 1
    12    7    8 ar
    13    7   38 1
    14    8   15 1
    15    8    9 ar
    16    9   10 ar
    17    9   11 1
    18   10   39 1
    19   11   12 2
    20   12   13 1
    21   12   17 1
    22   13   14 1
    23   13   15 am
    24   15   16 2
    25   17   18 1
    26   17   40 1
    27   17   41 1
    28   18   19 1
    29   19   23 1
    30   19   20 2
    31   20   21 1
    32   21   22 2
    33   22   23 1
    34   22   24 1
    35   24   29 1
    36   24   25 2
    37   25   26 1
    38   25   42 1
    39   26   27 1
    40   26   28 1
    41   28   33 ar
    42   28   29 ar
    43   29   30 ar
    44   30   31 ar
    45   30   43 1
    46   31   32 ar
    47   31   44 1
    48   32   33 ar
    49   32   45 1
    50   33   46 1
@<TRIPOS>MOLECULE
ZINC15778089
   49    51     0     0     0
SMALL
USER_CHARGES
4-(2-anilino-2-oxo-ethoxy)-N-[(4-nitrophenyl)methyleneamino]benzamide
@<TRIPOS>ATOM
      1 C1         -2.0033    2.8418    5.8872 C.ar      1 <0>        -0.1301
      2 C2         -2.7843    2.5349    4.7881 C.ar      1 <0>        -0.1013
      3 C3         -2.2033    2.0057    3.6524 C.ar      1 <0>        -0.1199
      4 C4         -0.8333    1.7819    3.6149 C.ar      1 <0>         0.1382
      5 C5         -0.0526    2.0858    4.7224 C.ar      1 <0>        -0.1421
      6 C6         -0.6389    2.6197    5.8533 C.ar      1 <0>        -0.1017
      7 N1         -0.2416    1.2460    2.4658 N.am      1 <0>        -0.6694
      8 C7         -0.7170    1.5732    1.2478 C.2       1 <0>         0.5146
      9 O1         -1.7087    2.2645    1.1496 O.2       1 <0>        -0.4902
     10 C8         -0.0164    1.0800    0.0081 C.3       1 <0>         0.0404
     11 O2         -0.7053    1.5564   -1.1497 O.3       1 <0>        -0.2820
     12 C9         -0.2000    1.1996   -2.3577 C.ar      1 <0>         0.1632
     13 C10         0.9420    0.4100   -2.4254 C.ar      1 <0>        -0.2181
     14 C11         1.4551    0.0417   -3.6490 C.ar      1 <0>        -0.0418
     15 C12         0.8320    0.4715   -4.8239 C.ar      1 <0>        -0.1750
     16 C13        -0.3129    1.2697   -4.7514 C.ar      1 <0>        -0.0092
     17 C14        -0.8224    1.6295   -3.5238 C.ar      1 <0>        -0.1505
     18 C15         1.3812    0.0832   -6.1372 C.2       1 <0>         0.5832
     19 O3          0.8374    0.4578   -7.1585 O.2       1 <0>        -0.4928
     20 N2          2.4854   -0.6866   -6.2050 N.am      1 <0>        -0.5785
     21 N3          3.0068   -1.0554   -7.4519 N.2       1 <0>        -0.2037
     22 C16         4.0700   -1.7966   -7.5172 C.2       1 <0>         0.0912
     23 C17         4.6189   -2.1848   -8.8298 C.ar      1 <0>         0.0018
     24 C18         3.9936   -1.7611  -10.0050 C.ar      1 <0>        -0.0824
     25 C19         4.5154   -2.1239  -11.2292 C.ar      1 <0>        -0.0551
     26 C20         5.6494   -2.9140  -11.2949 C.ar      1 <0>        -0.0344
     27 C21         6.2710   -3.3417  -10.1350 C.ar      1 <0>        -0.0562
     28 C22         5.7632   -2.9826   -8.9039 C.ar      1 <0>        -0.0915
     29 N4          6.2001   -3.3039  -12.6125 N.pl3     1 <0>         0.0244
     30 O4          7.1980   -3.9996  -12.6737 O.2       1 <0>        -0.1558
     31 O5          5.6553   -2.9290  -13.6353 O.3       1 <0>        -0.1547
     32 H1         -2.4600    3.2555    6.7742 H         1 <0>         0.1254
     33 H2         -3.8497    2.7095    4.8177 H         1 <0>         0.1277
     34 H3         -2.8139    1.7659    2.7944 H         1 <0>         0.1388
     35 H4          1.0126    1.9088    4.6980 H         1 <0>         0.1263
     36 H5         -0.0317    2.8601    6.7134 H         1 <0>         0.1282
     37 H6          0.5108    0.6389    2.5457 H         1 <0>         0.4130
     38 H7         -0.0094   -0.0099    0.0039 H         1 <0>         0.1016
     39 H8          1.0089    1.4500   -0.0014 H         1 <0>         0.1020
     40 H9          1.4250    0.0814   -1.5171 H         1 <0>         0.1379
     41 H10         2.3398   -0.5755   -3.7008 H         1 <0>         0.1285
     42 H11        -0.7975    1.6036   -5.6570 H         1 <0>         0.1498
     43 H12        -1.7071    2.2464   -3.4669 H         1 <0>         0.1465
     44 H13         2.9191   -0.9854   -5.3904 H         1 <0>         0.3891
     45 H14         4.5529   -2.1293   -6.6102 H         1 <0>         0.1325
     46 H15         3.1061   -1.1478   -9.9551 H         1 <0>         0.1594
     47 H16         4.0354   -1.7936  -12.1386 H         1 <0>         0.1590
     48 H17         7.1556   -3.9584  -10.1938 H         1 <0>         0.1596
     49 H18         6.2489   -3.3177   -7.9993 H         1 <0>         0.1544
@<TRIPOS>BOND
     1    1    6 ar
     2    1    2 ar
     3    1   32 1
     4    2    3 ar
     5    2   33 1
     6    3    4 ar
     7    3   34 1
     8    4    5 ar
     9    4    7 1
    10    5    6 ar
    11    5   35 1
    12    6   36 1
    13    7    8 am
    14    7   37 1
    15    8    9 2
    16    8   10 1
    17   10   11 1
    18   10   38 1
    19   10   39 1
    20   11   12 1
    21   12   17 ar
    22   12   13 ar
    23   13   14 ar
    24   13   40 1
    25   14   15 ar
    26   14   41 1
    27   15   16 ar
    28   15   18 1
    29   16   17 ar
    30   16   42 1
    31   17   43 1
    32   18   19 2
    33   18   20 am
    34   20   21 1
    35   20   44 1
    36   21   22 2
    37   22   23 1
    38   22   45 1
    39   23   28 ar
    40   23   24 ar
    41   24   25 ar
    42   24   46 1
    43   25   26 ar
    44   25   47 1
    45   26   27 ar
    46   26   29 1
    47   27   28 ar
    48   27   48 1
    49   28   49 1
    50   29   30 2
    51   29   31 1
@<TRIPOS>MOLECULE
ZINC33087451
   44    47     0     0     0
SMALL
USER_CHARGES
N-(4-chlorophenyl)-3-[3-[[5-(2-furyl)-4H-1,2,4-triazol-3-yl]sulfanylmethyl]-1,2,4-oxadiazol-5-yl]propanamide
@<TRIPOS>ATOM
      1 C1          4.4878   10.7100    2.5557 C.2       1 <0>        -0.2167
      2 C2          4.1356    9.7382    1.5993 C.2       1 <0>        -0.1504
      3 C3          3.7510    8.6288    2.2908 C.2       1 <0>         0.0584
      4 O1          3.8668    8.8953    3.6068 O.3       1 <0>        -0.1564
      5 C4          4.3118   10.1522    3.7701 C.2       1 <0>        -0.0152
      6 C5          3.2949    7.3595    1.7032 C.2       1 <0>         0.2729
      7 N1          2.9001    6.2331    2.3912 N.2       1 <0>        -0.4617
      8 H1          2.5979    5.4843   -0.7470 H         1 <0>         0.4803
      9 C6          2.5650    5.3162    1.4346 C.2       1 <0>         0.1820
     10 N2          2.7544    5.8851    0.2653 N.pl3     1 <0>        -0.3870
     11 N3          3.1868    7.0849    0.4216 N.2       1 <0>        -0.2969
     12 S1          1.9865    3.6760    1.7168 S.3       1 <0>         0.0937
     13 C7          1.7629    3.1231    0.0079 C.3       1 <0>        -0.0617
     14 C8          1.2582    1.7031    0.0013 C.2       1 <0>         0.1751
     15 N4         -0.0298    1.3161    0.0140 N.2       1 <0>        -0.4630
     16 C9         -0.0046    0.0051    0.0017 C.2       1 <0>         0.1923
     17 O2          1.2812   -0.3585   -0.0178 O.3       1 <0>         0.0960
     18 N5          1.9874    0.6277   -0.0177 N.2       1 <0>        -0.3551
     19 C10        -1.1977   -0.9156    0.0075 C.3       1 <0>        -0.0177
     20 C11        -1.6187   -1.2140   -1.4328 C.3       1 <0>        -0.1392
     21 C12        -2.8117   -2.1346   -1.4270 C.2       1 <0>         0.5212
     22 O3         -3.2793   -2.5147   -0.3743 O.2       1 <0>        -0.5171
     23 N6         -3.3591   -2.5357   -2.5914 N.am      1 <0>        -0.6850
     24 C13        -4.4049   -3.4660   -2.5894 C.ar      1 <0>         0.1512
     25 C14        -4.5064   -4.4006   -3.6115 C.ar      1 <0>        -0.1328
     26 C15        -5.5365   -5.3206   -3.6046 C.ar      1 <0>        -0.0913
     27 C16        -6.4730   -5.3048   -2.5859 C.ar      1 <0>        -0.0499
     28 C17        -6.3771   -4.3712   -1.5690 C.ar      1 <0>        -0.0909
     29 C18        -5.3460   -3.4524   -1.5684 C.ar      1 <0>        -0.1109
     30 Cl1        -7.7700   -6.4587   -2.5834 Cl        1 <0>        -0.0682
     31 H2          4.8376   11.7118    2.3541 H         1 <0>         0.1573
     32 H3          4.1628    9.8512    0.5256 H         1 <0>         0.1578
     33 H4          4.4982   10.6357    4.7177 H         1 <0>         0.2117
     34 H5          2.7254    3.1726   -0.5224 H         1 <0>         0.1242
     35 H6          1.0330    3.7740   -0.4956 H         1 <0>         0.1293
     36 H7         -0.9332   -1.8553    0.5143 H         1 <0>         0.1186
     37 H8         -2.0304   -0.4334    0.5405 H         1 <0>         0.1260
     38 H9         -1.8832   -0.2742   -1.9396 H         1 <0>         0.1106
     39 H10        -0.7860   -1.6963   -1.9658 H         1 <0>         0.1098
     40 H11        -2.9840   -2.1320   -3.5434 H         1 <0>         0.4393
     41 H12        -3.7781   -4.4107   -4.4089 H         1 <0>         0.1358
     42 H13        -5.6133   -6.0505   -4.3969 H         1 <0>         0.1379
     43 H14        -7.1091   -4.3613   -0.7749 H         1 <0>         0.1374
     44 H15        -5.2714   -2.7242   -0.7743 H         1 <0>         0.1482
@<TRIPOS>BOND
     1    1    5 2
     2    1    2 1
     3    1   31 1
     4    2    3 2
     5    2   32 1
     6    3    4 1
     7    3    6 1
     8    4    5 1
     9    5   33 1
    10    6    7 1
    11    6   11 2
    12    7    9 2
    13    8   10 1
    14    9   12 1
    15    9   10 1
    16   10   11 1
    17   12   13 1
    18   13   14 1
    19   13   34 1
    20   13   35 1
    21   14   18 2
    22   14   15 1
    23   15   16 2
    24   16   17 1
    25   16   19 1
    26   17   18 1
    27   19   20 1
    28   19   36 1
    29   19   37 1
    30   20   21 1
    31   20   38 1
    32   20   39 1
    33   21   22 2
    34   21   23 am
    35   23   24 1
    36   23   40 1
    37   24   29 ar
    38   24   25 ar
    39   25   26 ar
    40   25   41 1
    41   26   27 ar
    42   26   42 1
    43   27   28 ar
    44   27   30 1
    45   28   29 ar
    46   28   43 1
    47   29   44 1
@<TRIPOS>MOLECULE
ZINC40658404
   45    47     0     0     0
SMALL
USER_CHARGES

@<TRIPOS>ATOM
      1 C1         -0.0166    1.3749    0.0096 C.ar      1 <0>        -0.1102
      2 C2          1.1704    2.0868    0.0021 C.ar      1 <0>        -0.0793
      3 C3          2.3828    1.4220   -0.0135 C.ar      1 <0>        -0.0972
      4 C4          2.4165    0.0413   -0.0213 C.ar      1 <0>        -0.0384
      5 C5          1.2221   -0.6827   -0.0133 C.ar      1 <0>        -0.1087
      6 C6          0.0021   -0.0041    0.0020 C.ar      1 <0>        -0.0783
      7 C7          1.2497   -2.1603   -0.0220 C.2       1 <0>         0.5519
      8 O1          2.3135   -2.7483   -0.0362 O.2       1 <0>        -0.4939
      9 N1          0.0953   -2.8558   -0.0143 N.am      1 <0>        -0.5100
     10 N2          0.1214   -4.2566   -0.0226 N.pl3     1 <0>        -0.4831
     11 C8         -1.0658   -4.9719   -0.0146 C.ar      1 <0>         0.5141
     12 C9         -1.0519   -6.3646   -0.0168 C.ar      1 <0>        -0.2343
     13 C10        -2.2682   -7.0349   -0.0081 C.ar      1 <0>         0.4615
     14 N3         -3.3955   -6.3286    0.0020 N.ar      1 <0>        -0.5898
     15 C11        -3.3688   -5.0114    0.0038 C.ar      1 <0>         0.4183
     16 N4         -2.2364   -4.3381    0.0009 N.ar      1 <0>        -0.5850
     17 O2         -2.3062   -8.3899   -0.0103 O.3       1 <0>        -0.2848
     18 C12        -3.5970   -9.0027   -0.0009 C.3       1 <0>         0.0883
     19 C13        -4.0459   -9.2241    1.4450 C.3       1 <0>        -0.1360
     20 C14        -5.4280   -9.8803    1.4551 C.3       1 <0>        -0.1138
     21 C15        -5.3589  -11.2262    0.7307 C.3       1 <0>        -0.1264
     22 C16        -4.9101  -11.0048   -0.7151 C.3       1 <0>        -0.1140
     23 C17        -3.5280  -10.3486   -0.7252 C.3       1 <0>        -0.1195
     24 N5          0.2263   -7.1111   -0.0287 N.pl3     1 <0>         0.0378
     25 O3          0.7571   -7.4175    1.0134 O.2       1 <0>        -0.1260
     26 O4          0.7395   -7.4143   -1.0805 O.3       1 <0>        -0.1263
     27 Br1         4.0752   -0.8665   -0.0433 Br        1 <0>        -0.0013
     28 H1         -0.9599    1.9006    0.0260 H         1 <0>         0.1412
     29 H2          1.1495    3.1666    0.0081 H         1 <0>         0.1418
     30 H3          3.3053    1.9836   -0.0200 H         1 <0>         0.1446
     31 H4         -0.9251   -0.5579    0.0079 H         1 <0>         0.1356
     32 H5         -0.7536   -2.3866   -0.0030 H         1 <0>         0.4357
     33 H6          0.9702   -4.7258   -0.0338 H         1 <0>         0.4488
     34 H7         -4.3021   -4.4680    0.0118 H         1 <0>         0.2242
     35 H8         -4.3111   -8.3536   -0.5076 H         1 <0>         0.1008
     36 H9         -3.3318   -9.8732    1.9517 H         1 <0>         0.0732
     37 H10        -4.0951   -8.2653    1.9610 H         1 <0>         0.0697
     38 H11        -5.7478  -10.0380    2.4851 H         1 <0>         0.0713
     39 H12        -6.1421   -9.2311    0.9483 H         1 <0>         0.0678
     40 H13        -4.6449  -11.8753    1.2375 H         1 <0>         0.0662
     41 H14        -6.3436  -11.6936    0.7379 H         1 <0>         0.0693
     42 H15        -4.8609  -11.9636   -1.2311 H         1 <0>         0.0754
     43 H16        -5.6242  -10.3556   -1.2219 H         1 <0>         0.0675
     44 H17        -3.2082  -10.1909   -1.7552 H         1 <0>         0.0742
     45 H18        -2.8139  -10.9977   -0.2184 H         1 <0>         0.0770
@<TRIPOS>BOND
     1    1    6 ar
     2    1    2 ar
     3    1   28 1
     4    2    3 ar
     5    2   29 1
     6    3    4 ar
     7    3   30 1
     8    4    5 ar
     9    4   27 1
    10    5    6 ar
    11    5    7 1
    12    6   31 1
    13    7    8 2
    14    7    9 am
    15    9   10 1
    16    9   32 1
    17   10   11 1
    18   10   33 1
    19   11   16 ar
    20   11   12 ar
    21   12   13 ar
    22   12   24 1
    23   13   14 ar
    24   13   17 1
    25   14   15 ar
    26   15   16 ar
    27   15   34 1
    28   17   18 1
    29   18   23 1
    30   18   19 1
    31   18   35 1
    32   19   20 1
    33   19   36 1
    34   19   37 1
    35   20   21 1
    36   20   38 1
    37   20   39 1
    38   21   22 1
    39   21   40 1
    40   21   41 1
    41   22   23 1
    42   22   42 1
    43   22   43 1
    44   23   44 1
    45   23   45 1
    46   24   25 2
    47   24   26 1
@<TRIPOS>MOLECULE
ZINC60376058
   58    60     0     0     0
SMALL
USER_CHARGES

@<TRIPOS>ATOM
      1 C1          0.0424    1.4929    0.0306 C.3       1 <0>        -0.1237
      2 C2          0.0554   -0.0140    0.0258 C.ar      1 <0>         0.0588
      3 C3          0.0685   -0.7146   -1.1526 C.ar      1 <0>        -0.2254
      4 C4          0.0807   -2.1017   -1.1261 C.ar      1 <0>         0.2120
      5 N1          0.0796   -2.7691    0.0074 N.ar      1 <0>        -0.5126
      6 C5          0.0672   -2.1449    1.1791 C.ar      1 <0>         0.3458
      7 C6          0.0602   -0.7363    1.2232 C.ar      1 <0>        -0.2264
      8 C7          0.0550   -0.3669    2.6377 C.2       1 <0>         0.3003
      9 N2          0.0639   -1.4715    3.3330 N.2       1 <0>        -0.2993
     10 N3          0.0626   -2.5772    2.4771 N.pl3     1 <0>        -0.3814
     11 C8          0.0715   -3.9788    2.9034 C.3       1 <0>         0.1159
     12 O1          0.0437    0.8969    3.1378 O.3       1 <0>        -0.2543
     13 C9          0.0404    1.0317    4.5604 C.3       1 <0>         0.0445
     14 C10         0.0277    2.4935    4.9265 C.2       1 <0>         0.5175
     15 O2          0.0220    3.3369    4.0549 O.2       1 <0>        -0.4923
     16 N4          0.0227    2.8636    6.2225 N.am      1 <0>        -0.6670
     17 C11         0.1084    4.2179    6.5636 C.ar      1 <0>         0.1601
     18 C12         0.8065    4.6058    7.7006 C.ar      1 <0>        -0.1503
     19 C13         0.8912    5.9426    8.0383 C.ar      1 <0>        -0.0813
     20 C14         0.2824    6.8980    7.2471 C.ar      1 <0>        -0.1288
     21 C15        -0.4169    6.5167    6.1092 C.ar      1 <0>         0.1734
     22 C16        -0.4986    5.1752    5.7639 C.ar      1 <0>        -0.1411
     23 N5         -1.0339    7.4849    5.3089 N.am      1 <0>        -0.6488
     24 C17        -0.4580    8.6927    5.1477 C.2       1 <0>         0.6511
     25 O3          0.5523    8.9710    5.7626 O.2       1 <0>        -0.5511
     26 O4         -1.0023    9.5910    4.3051 O.3       1 <0>        -0.3577
     27 C18        -0.3391   10.8509    4.1832 C.3       1 <0>         0.0877
     28 C19        -1.0979   11.7326    3.1893 C.3       1 <0>        -0.0958
     29 C20        -2.4838   12.0572    3.7503 C.3       1 <0>        -0.1489
     30 C21        -0.3217   13.0317    2.9641 C.3       1 <0>        -0.1469
     31 C22         0.0951   -2.8620   -2.4272 C.3       1 <0>        -0.1081
     32 H1          1.0669    1.8651    0.0329 H         1 <0>         0.0840
     33 H2         -0.4735    1.8547   -0.8588 H         1 <0>         0.0766
     34 H3         -0.4755    1.8490    0.9211 H         1 <0>         0.0829
     35 H4          0.0690   -0.1896   -2.0964 H         1 <0>         0.1442
     36 H5          1.1013   -4.3179    3.0156 H         1 <0>         0.0711
     37 H6         -0.4476   -4.0716    3.8574 H         1 <0>         0.0883
     38 H7         -0.4327   -4.5895    2.1545 H         1 <0>         0.0923
     39 H8         -0.8461    0.5470    4.9693 H         1 <0>         0.1039
     40 H9          0.9338    0.5618    4.9720 H         1 <0>         0.1043
     41 H10        -0.0404    2.1911    6.9187 H         1 <0>         0.4161
     42 H11         1.2831    3.8614    8.3212 H         1 <0>         0.1304
     43 H12         1.4341    6.2416    8.9228 H         1 <0>         0.1345
     44 H13         0.3501    7.9423    7.5140 H         1 <0>         0.1435
     45 H14        -1.0380    4.8766    4.8772 H         1 <0>         0.1455
     46 H15        -1.8761    7.2867    4.8703 H         1 <0>         0.4188
     47 H16        -0.3102   11.3418    5.1559 H         1 <0>         0.0714
     48 H17         0.6783   10.6929    3.8256 H         1 <0>         0.0710
     49 H18        -1.2041   11.2039    2.2421 H         1 <0>         0.0831
     50 H19        -2.3777   12.5859    4.6976 H         1 <0>         0.0555
     51 H20        -3.0244   12.6853    3.0422 H         1 <0>         0.0595
     52 H21        -3.0368   11.1317    3.9107 H         1 <0>         0.0610
     53 H22         0.6656   12.8004    2.5644 H         1 <0>         0.0598
     54 H23        -0.8623   13.6598    2.2560 H         1 <0>         0.0673
     55 H24        -0.2156   13.5604    3.9114 H         1 <0>         0.0599
     56 H25         1.1262   -3.0361   -2.7349 H         1 <0>         0.0857
     57 H26        -0.4110   -3.8182   -2.2948 H         1 <0>         0.0812
     58 H27        -0.4195   -2.2815   -3.1929 H         1 <0>         0.0826
@<TRIPOS>BOND
     1    1    2 1
     2    1   32 1
     3    1   33 1
     4    1   34 1
     5    2    7 ar
     6    2    3 ar
     7    3    4 ar
     8    3   35 1
     9    4    5 ar
    10    4   31 1
    11    5    6 ar
    12    6   10 1
    13    6    7 ar
    14    7    8 1
    15    8    9 2
    16    8   12 1
    17    9   10 1
    18   10   11 1
    19   11   36 1
    20   11   37 1
    21   11   38 1
    22   12   13 1
    23   13   14 1
    24   13   39 1
    25   13   40 1
    26   14   15 2
    27   14   16 am
    28   16   17 1
    29   16   41 1
    30   17   22 ar
    31   17   18 ar
    32   18   19 ar
    33   18   42 1
    34   19   20 ar
    35   19   43 1
    36   20   21 ar
    37   20   44 1
    38   21   22 ar
    39   21   23 1
    40   22   45 1
    41   23   24 am
    42   23   46 1
    43   24   25 2
    44   24   26 1
    45   26   27 1
    46   27   28 1
    47   27   47 1
    48   27   48 1
    49   28   29 1
    50   28   30 1
    51   28   49 1
    52   29   50 1
    53   29   51 1
    54   29   52 1
    55   30   53 1
    56   30   54 1
    57   30   55 1
    58   31   56 1
    59   31   57 1
    60   31   58 1
@<TRIPOS>MOLECULE
ZINC11855518
   52    55     0     0     0
SMALL
USER_CHARGES
ethyl N-[2-(5-benzyl-4-methyl-6-oxo-1H-pyrimidin-2-yl)-5-(2-thienyl)pyrazol-3-yl]carbamate
@<TRIPOS>ATOM
      1 C1          1.0474    3.5329    0.0110 C.3       1 <0>        -0.1553
      2 C2          1.2684    2.0190    0.0008 C.3       1 <0>         0.0806
      3 O1         -0.0162    1.3423    0.0094 O.3       1 <0>        -0.3567
      4 C3          0.0021   -0.0041    0.0020 C.2       1 <0>         0.6606
      5 O2          1.0625   -0.5972   -0.0113 O.2       1 <0>        -0.5376
      6 N1         -1.1558   -0.6938    0.0094 N.am      1 <0>        -0.6173
      7 C4         -1.1369   -2.0870    0.0017 C.2       1 <0>         0.3749
      8 C5         -0.0308   -2.8726   -0.0126 C.2       1 <0>        -0.2488
      9 C6         -0.4566   -4.2179   -0.0160 C.2       1 <0>         0.2261
     10 N2         -1.7739   -4.2327   -0.0040 N.2       1 <0>        -0.2732
     11 N3         -2.2287   -2.9080    0.0132 N.pl3     1 <0>        -0.3474
     12 C7         -3.5490   -2.5030    0.0345 C.2       1 <0>         0.6514
     13 N4         -4.5344   -3.4397    0.0383 N.am      1 <0>        -0.6217
     14 H1         -4.3092   -4.3831    0.0260 H         1 <0>         0.4292
     15 C8         -5.8277   -3.0523    0.0647 C.2       1 <0>         0.5437
     16 O3         -6.7247   -3.8792    0.0729 O.2       1 <0>        -0.5132
     17 C9         -6.1205   -1.6757    0.0762 C.2       1 <0>        -0.2591
     18 C10        -5.0890   -0.7833    0.0660 C.2       1 <0>         0.2112
     19 N5         -3.8302   -1.2180    0.0454 N.2       1 <0>        -0.5732
     20 C11        -5.3740    0.6965    0.0774 C.3       1 <0>        -0.1155
     21 C12        -7.5490   -1.1960    0.0990 C.3       1 <0>        -0.0122
     22 C13        -8.0847   -1.1464   -1.3087 C.ar      1 <0>        -0.0799
     23 C14        -7.9573    0.0093   -2.0564 C.ar      1 <0>        -0.1203
     24 C15        -8.4444    0.0532   -3.3494 C.ar      1 <0>        -0.1213
     25 C16        -9.0679   -1.0552   -3.8911 C.ar      1 <0>        -0.1226
     26 C17        -9.2004   -2.2090   -3.1414 C.ar      1 <0>        -0.1199
     27 C18        -8.7086   -2.2547   -1.8503 C.ar      1 <0>        -0.1056
     28 C19         0.4235   -5.4055   -0.0304 C.2       1 <0>        -0.1170
     29 C20         0.0829   -6.7318   -0.0344 C.2       1 <0>        -0.1042
     30 C21         1.0883   -7.6736   -0.0486 C.2       1 <0>        -0.1662
     31 C22         2.3817   -7.2606   -0.0582 C.2       1 <0>        -0.1579
     32 S1          2.2070   -5.4839   -0.0549 S.3       1 <0>         0.1119
     33 H2          0.4950    3.8134    0.9078 H         1 <0>         0.0691
     34 H3          2.0118    4.0410    0.0046 H         1 <0>         0.0873
     35 H4          0.4780    3.8230   -0.8720 H         1 <0>         0.0691
     36 H5          1.8378    1.7290    0.8838 H         1 <0>         0.0773
     37 H6          1.8208    1.7385   -0.8960 H         1 <0>         0.0773
     38 H7         -2.0023   -0.2203    0.0200 H         1 <0>         0.4370
     39 H8          0.9932   -2.5294   -0.0201 H         1 <0>         0.1982
     40 H9         -4.4337    1.2477    0.0664 H         1 <0>         0.0846
     41 H10        -5.9602    0.9604   -0.8028 H         1 <0>         0.0935
     42 H11        -5.9342    0.9516    0.9770 H         1 <0>         0.0946
     43 H12        -8.1529   -1.8813    0.6937 H         1 <0>         0.0900
     44 H13        -7.5906   -0.1996    0.5389 H         1 <0>         0.0893
     45 H14        -7.4738    0.8767   -1.6318 H         1 <0>         0.1225
     46 H15        -8.3412    0.9548   -3.9350 H         1 <0>         0.1216
     47 H16        -9.4518   -1.0197   -4.8999 H         1 <0>         0.1204
     48 H17        -9.6878   -3.0749   -3.5645 H         1 <0>         0.1210
     49 H18        -8.8121   -3.1561   -1.2645 H         1 <0>         0.1276
     50 H19        -0.9540   -7.0337   -0.0262 H         1 <0>         0.1412
     51 H20         0.8507   -8.7272   -0.0518 H         1 <0>         0.1415
     52 H21         3.2839   -7.8541   -0.0696 H         1 <0>         0.1933
@<TRIPOS>BOND
     1    1    2 1
     2    1   33 1
     3    1   34 1
     4    1   35 1
     5    2    3 1
     6    2   36 1
     7    2   37 1
     8    3    4 1
     9    4    5 2
    10    4    6 am
    11    6    7 1
    12    6   38 1
    13    7   11 1
    14    7    8 2
    15    8    9 1
    16    8   39 1
    17    9   10 2
    18    9   28 1
    19   10   11 1
    20   11   12 1
    21   12   19 2
    22   12   13 1
    23   13   14 1
    24   13   15 am
    25   15   16 2
    26   15   17 1
    27   17   18 2
    28   17   21 1
    29   18   19 1
    30   18   20 1
    31   20   40 1
    32   20   41 1
    33   20   42 1
    34   21   22 1
    35   21   43 1
    36   21   44 1
    37   22   27 ar
    38   22   23 ar
    39   23   24 ar
    40   23   45 1
    41   24   25 ar
    42   24   46 1
    43   25   26 ar
    44   25   47 1
    45   26   27 ar
    46   26   48 1
    47   27   49 1
    48   28   32 1
    49   28   29 2
    50   29   30 1
    51   29   50 1
    52   30   31 2
    53   30   51 1
    54   31   32 1
    55   31   52 1
@<TRIPOS>MOLECULE
ZINC23200348
   54    56     0     0     0
SMALL
USER_CHARGES
(2S)-2-(1-cyclohexyltetrazol-5-yl)sulfanyl-N-[(2,4-dimethylphenyl)carbamoyl]propanamide
@<TRIPOS>ATOM
      1 C1          3.7042   -0.7179    0.0081 C.3       1 <0>        -0.1168
      2 C2          2.3920    0.0233    0.0126 C.ar      1 <0>        -0.0946
      3 C3          1.2821   -0.5424    0.6132 C.ar      1 <0>        -0.1066
      4 C4          0.0782    0.1340    0.6186 C.ar      1 <0>        -0.1130
      5 C5         -0.0172    1.3839    0.0204 C.ar      1 <0>         0.1529
      6 C6          1.0991    1.9492   -0.5813 C.ar      1 <0>        -0.1062
      7 C7          2.3003    1.2671   -0.5842 C.ar      1 <0>        -0.1042
      8 C8          1.0000    3.3049   -1.2320 C.3       1 <0>        -0.1142
      9 N1         -1.2372    2.0693    0.0191 N.am      1 <0>        -0.6859
     10 C9         -2.3942    1.3855   -0.0808 C.2       1 <0>         0.6997
     11 O1         -2.3832    0.1701   -0.0877 O.2       1 <0>        -0.5134
     12 N2         -3.5635    2.0493   -0.1732 N.am      1 <0>        -0.6959
     13 C10        -4.7206    1.3655   -0.2732 C.2       1 <0>         0.5404
     14 O2         -4.7096    0.1532   -0.2800 O.2       1 <0>        -0.4512
     15 C11        -6.0280    2.1078   -0.3765 C.3       1 <0>        -0.1213
     16 H1         -5.7655    3.0318   -0.9126 H         1 <0>         0.1368
     17 C12        -6.4646    2.5680    1.0158 C.3       1 <0>        -0.1539
     18 S1         -7.2899    1.0132   -1.0734 S.3       1 <0>         0.1307
     19 C13        -8.6307    2.1468   -1.2209 C.2       1 <0>         0.1962
     20 N3         -8.6183    3.4195   -0.8886 N.2       1 <0>        -0.3345
     21 N4         -9.7605    3.9571   -1.1246 N.2       1 <0>        -0.0338
     22 N5        -10.5731    3.0853   -1.6159 N.2       1 <0>        -0.0726
     23 N6         -9.8660    1.8733   -1.7029 N.pl3     1 <0>        -0.3541
     24 C14       -10.3607    0.5890   -2.2050 C.3       1 <0>         0.1531
     25 C15       -10.7932    0.7444   -3.6644 C.3       1 <0>        -0.1278
     26 C16       -11.3098   -0.5969   -4.1888 C.3       1 <0>        -0.1171
     27 C17       -12.5059   -1.0468   -3.3476 C.3       1 <0>        -0.1270
     28 C18       -12.0735   -1.2022   -1.8882 C.3       1 <0>        -0.1172
     29 C19       -11.5569    0.1391   -1.3638 C.3       1 <0>        -0.1280
     30 H2          3.5830   -1.6811    0.5253 H         1 <0>         0.0658
     31 H3          4.4664   -0.1171    0.5258 H         1 <0>         0.0697
     32 H4          4.0209   -0.8965   -1.0301 H         1 <0>         0.0696
     33 H5          1.3569   -1.5143    1.0782 H         1 <0>         0.1252
     34 H6         -0.7884   -0.3086    1.0872 H         1 <0>         0.1394
     35 H7          3.1687    1.7058   -1.0530 H         1 <0>         0.1260
     36 H8          1.9785    3.5831   -1.6506 H         1 <0>         0.0711
     37 H9          0.6967    4.0503   -0.4820 H         1 <0>         0.0672
     38 H10         0.2525    3.2708   -2.0383 H         1 <0>         0.0684
     39 H11        -1.2519    3.1663    0.0996 H         1 <0>         0.4297
     40 H12        -3.5735    3.1492   -0.1670 H         1 <0>         0.4384
     41 H13        -7.4189    3.1098    0.9404 H         1 <0>         0.0958
     42 H14        -5.6977    3.2332    1.4393 H         1 <0>         0.0784
     43 H15        -6.5910    1.6918    1.6687 H         1 <0>         0.0742
     44 H16        -9.5344   -0.1322   -2.1204 H         1 <0>         0.1112
     45 H17       -11.5927    1.4969   -3.7317 H         1 <0>         0.0842
     46 H18        -9.9333    1.0679   -4.2692 H         1 <0>         0.0731
     47 H19       -11.6207   -0.4852   -5.2380 H         1 <0>         0.0768
     48 H20       -10.5103   -1.3494   -4.1214 H         1 <0>         0.0701
     49 H21       -13.3053   -0.2942   -3.4150 H         1 <0>         0.0681
     50 H22       -12.8774   -2.0111   -3.7246 H         1 <0>         0.0719
     51 H23       -12.9335   -1.5257   -1.2834 H         1 <0>         0.0769
     52 H24       -11.2741   -1.9548   -1.8208 H         1 <0>         0.0701
     53 H25       -11.2460    0.0274   -0.3146 H         1 <0>         0.0737
     54 H26       -12.3564    0.8916   -1.4312 H         1 <0>         0.0842
@<TRIPOS>BOND
     1    1    2 1
     2    1   30 1
     3    1   31 1
     4    1   32 1
     5    2    7 ar
     6    2    3 ar
     7    3    4 ar
     8    3   33 1
     9    4    5 ar
    10    4   34 1
    11    5    6 ar
    12    5    9 1
    13    6    7 ar
    14    6    8 1
    15    7   35 1
    16    8   36 1
    17    8   37 1
    18    8   38 1
    19    9   10 am
    20    9   39 1
    21   10   11 2
    22   10   12 am
    23   12   13 am
    24   12   40 1
    25   13   14 2
    26   13   15 1
    27   15   16 1
    28   15   17 1
    29   15   18 1
    30   17   41 1
    31   17   42 1
    32   17   43 1
    33   18   19 1
    34   19   23 1
    35   19   20 2
    36   20   21 1
    37   21   22 2
    38   22   23 1
    39   23   24 1
    40   24   29 1
    41   24   25 1
    42   24   44 1
    43   25   26 1
    44   25   45 1
    45   25   46 1
    46   26   27 1
    47   26   47 1
    48   26   48 1
    49   27   28 1
    50   27   49 1
    51   27   50 1
    52   28   29 1
    53   28   51 1
    54   28   52 1
    55   29   53 1
    56   29   54 1
@<TRIPOS>MOLECULE
ZINC40825552
   49    52     0     0     0
SMALL
USER_CHARGES

@<TRIPOS>ATOM
      1 C1         -0.0187    1.5258    0.0104 C.3       1 <0>        -0.1520
      2 C2          0.0021   -0.0041    0.0020 C.3       1 <0>         0.0742
      3 O1         -1.3386   -0.4987    0.0122 O.3       1 <0>        -0.3386
      4 C3         -1.4969   -1.8362    0.0065 C.2       1 <0>         0.6808
      5 O2         -0.5232   -2.5634   -0.0067 O.2       1 <0>        -0.5584
      6 N1         -2.7352   -2.3683    0.0155 N.am      1 <0>        -0.5553
      7 N2         -3.8577   -1.5301    0.0307 N.2       1 <0>        -0.2232
      8 C4         -5.0493   -2.0421    0.0393 C.2       1 <0>         0.1759
      9 C5         -5.2924   -3.5443    0.0400 C.3       1 <0>        -0.1213
     10 C6         -6.4400   -3.8450   -0.9297 C.3       1 <0>        -0.1101
     11 C7         -7.7439   -3.2120   -0.4364 C.3       1 <0>        -0.0465
     12 C8         -7.5185   -1.7456   -0.1683 C.2       1 <0>         0.0786
     13 C9         -6.2719   -1.2079    0.0555 C.2       1 <0>        -0.1582
     14 C10        -6.4370    0.1656    0.2706 C.2       1 <0>        -0.0122
     15 C11        -7.7795    0.4084    0.1774 C.2       1 <0>        -0.1083
     16 O3         -8.4102   -0.7601   -0.0953 O.3       1 <0>        -0.1475
     17 C12        -8.4266    1.7152    0.3336 C.2       1 <0>         0.6075
     18 O4         -7.7549    2.7025    0.5677 O.2       1 <0>        -0.4396
     19 N3         -9.7650    1.8226    0.2180 N.am      1 <0>        -0.6120
     20 C13       -10.3756    3.0557    0.3654 C.2       1 <0>         0.3724
     21 N4         -9.8262    4.2225    0.6116 N.2       1 <0>        -0.5045
     22 C14       -10.5514    5.3554    0.7315 C.ar      1 <0>         0.1012
     23 C15       -10.0877    6.6653    0.9944 C.ar      1 <0>        -0.0638
     24 C16       -10.9656    7.7135    1.0866 C.ar      1 <0>        -0.1058
     25 C17       -12.3318    7.5313    0.9268 C.ar      1 <0>        -0.0996
     26 C18       -12.8202    6.2637    0.6686 C.ar      1 <0>        -0.0623
     27 C19       -11.9485    5.2077    0.5745 C.ar      1 <0>        -0.1483
     28 S1        -12.1119    3.4665    0.2612 S.3       1 <0>         0.0101
     29 C20        -5.3526    1.1743    0.5492 C.3       1 <0>        -0.0993
     30 H1          1.0039    1.9031    0.0027 H         1 <0>         0.0827
     31 H2         -0.5459    1.8868   -0.8726 H         1 <0>         0.0680
     32 H3         -0.5289    1.8773    0.9072 H         1 <0>         0.0683
     33 H4          0.5123   -0.3556   -0.8948 H         1 <0>         0.0690
     34 H5          0.5293   -0.3651    0.8851 H         1 <0>         0.0692
     35 H6         -2.8492   -3.3315    0.0114 H         1 <0>         0.4105
     36 H7         -4.3906   -4.0627   -0.2857 H         1 <0>         0.0820
     37 H8         -5.5636   -3.8723    1.0435 H         1 <0>         0.1024
     38 H9         -6.1947   -3.4424   -1.9125 H         1 <0>         0.0779
     39 H10        -6.5715   -4.9243   -1.0070 H         1 <0>         0.0959
     40 H11        -8.5152   -3.3280   -1.1978 H         1 <0>         0.1025
     41 H12        -8.0624   -3.7048    0.4822 H         1 <0>         0.1062
     42 H13       -10.3004    1.0355    0.0314 H         1 <0>         0.4333
     43 H14        -9.0301    6.8414    1.1243 H         1 <0>         0.1352
     44 H15       -10.5854    8.7040    1.2886 H         1 <0>         0.1359
     45 H16       -13.0068    8.3708    1.0037 H         1 <0>         0.1401
     46 H17       -13.8811    6.1055    0.5421 H         1 <0>         0.1347
     47 H18        -4.9904    1.5876   -0.3921 H         1 <0>         0.0835
     48 H19        -5.7533    1.9770    1.1681 H         1 <0>         0.0867
     49 H20        -4.5297    0.6879    1.0730 H         1 <0>         0.0821
@<TRIPOS>BOND
     1    1    2 1
     2    1   30 1
     3    1   31 1
     4    1   32 1
     5    2    3 1
     6    2   33 1
     7    2   34 1
     8    3    4 1
     9    4    5 2
    10    4    6 am
    11    6    7 1
    12    6   35 1
    13    7    8 2
    14    8   13 1
    15    8    9 1
    16    9   10 1
    17    9   36 1
    18    9   37 1
    19   10   11 1
    20   10   38 1
    21   10   39 1
    22   11   12 1
    23   11   40 1
    24   11   41 1
    25   12   16 1
    26   12   13 2
    27   13   14 1
    28   14   15 2
    29   14   29 1
    30   15   16 1
    31   15   17 1
    32   17   18 2
    33   17   19 am
    34   19   20 1
    35   19   42 1
    36   20   28 1
    37   20   21 2
    38   21   22 1
    39   22   27 ar
    40   22   23 ar
    41   23   24 ar
    42   23   43 1
    43   24   25 ar
    44   24   44 1
    45   25   26 ar
    46   25   45 1
    47   26   27 ar
    48   26   46 1
    49   27   28 1
    50   29   47 1
    51   29   48 1
    52   29   49 1
@<TRIPOS>MOLECULE
ZINC57458219
   48    50     0     0     0
SMALL
USER_CHARGES

@<TRIPOS>ATOM
      1 C1          0.1238    2.0572   -0.0984 C.3       1 <0>        -0.1400
      2 C2          0.2168    0.5606   -0.2485 C.2       1 <0>         0.2209
      3 C3         -0.9111   -0.1798   -0.2292 C.2       1 <0>        -0.3020
      4 C4         -0.7727   -1.6807   -0.3833 C.3       1 <0>         0.2450
      5 H1         -1.3554   -1.9843   -1.2530 H         1 <0>         0.1016
      6 N1          0.5914   -2.2123   -0.5428 N.am      1 <0>        -0.7126
      7 C5          1.6222   -1.3441   -0.5423 C.2       1 <0>         0.7059
      8 O1          2.7522   -1.7728   -0.6733 O.2       1 <0>        -0.5536
      9 N2          1.4417   -0.0242   -0.4077 N.am      1 <0>        -0.5442
     10 C6          2.6239    0.8409   -0.4259 C.3       1 <0>         0.0704
     11 C7         -1.3847   -2.3308    0.8307 C.ar      1 <0>        -0.0667
     12 C8         -0.7236   -2.2897    2.0440 C.ar      1 <0>        -0.0970
     13 C9         -1.2850   -2.8860    3.1576 C.ar      1 <0>        -0.0512
     14 C10        -2.5078   -3.5230    3.0580 C.ar      1 <0>        -0.0408
     15 C11        -3.1694   -3.5633    1.8449 C.ar      1 <0>        -0.0493
     16 C12        -2.6099   -2.9633    0.7323 C.ar      1 <0>        -0.1015
     17 N3         -3.1085   -4.1624    4.2502 N.pl3     1 <0>         0.0310
     18 O2         -2.5297   -4.1275    5.3110 O.2       1 <0>        -0.1535
     19 O3         -4.1779   -4.7195    4.1631 O.3       1 <0>        -0.1531
     20 C13        -2.1818    0.4258   -0.0696 C.2       1 <0>         0.6049
     21 O4         -2.8938    0.6115   -1.0397 O.2       1 <0>        -0.4939
     22 N4         -2.6026    0.7964    1.1560 N.am      1 <0>        -0.6665
     23 C14        -3.8956    1.3004    1.3286 C.ar      1 <0>         0.2004
     24 C15        -4.8681    1.0670    0.3645 C.ar      1 <0>        -0.1446
     25 C16        -6.1438    1.5661    0.5380 C.ar      1 <0>        -0.0617
     26 C17        -6.4538    2.2980    1.6699 C.ar      1 <0>        -0.1393
     27 C18        -5.4881    2.5320    2.6314 C.ar      1 <0>        -0.0490
     28 C19        -4.2117    2.0303    2.4669 C.ar      1 <0>        -0.2236
     29 C20        -3.1615    2.2806    3.5183 C.3       1 <0>         0.5074
     30 F1         -3.7186    3.0204    4.5670 F         1 <0>        -0.1697
     31 F2         -2.6917    1.0574    4.0086 F         1 <0>        -0.1796
     32 F3         -2.0994    2.9963    2.9555 F         1 <0>        -0.1762
     33 H2          0.6045    2.5384   -0.9502 H         1 <0>         0.0983
     34 H3         -0.9243    2.3538   -0.0574 H         1 <0>         0.0872
     35 H4          0.6239    2.3619    0.8209 H         1 <0>         0.0973
     36 H5          0.7443   -3.1646   -0.6455 H         1 <0>         0.4354
     37 H6          2.9682    1.0072    0.5949 H         1 <0>         0.0750
     38 H7          3.4153    0.3626   -1.0028 H         1 <0>         0.0986
     39 H8          2.3677    1.7966   -0.8831 H         1 <0>         0.0871
     40 H9          0.2317   -1.7921    2.1218 H         1 <0>         0.1403
     41 H10        -0.7682   -2.8546    4.1053 H         1 <0>         0.1561
     42 H11        -4.1245   -4.0614    1.7670 H         1 <0>         0.1576
     43 H12        -3.1285   -2.9916   -0.2147 H         1 <0>         0.1510
     44 H13        -2.0086    0.7135    1.9183 H         1 <0>         0.4116
     45 H14        -4.6265    0.4962   -0.5199 H         1 <0>         0.1679
     46 H15        -6.9004    1.3851   -0.2112 H         1 <0>         0.1382
     47 H16        -7.4521    2.6878    1.8028 H         1 <0>         0.1376
     48 H17        -5.7333    3.1042    3.5140 H         1 <0>         0.1429
@<TRIPOS>BOND
     1    1    2 1
     2    1   33 1
     3    1   34 1
     4    1   35 1
     5    2    9 1
     6    2    3 2
     7    3    4 1
     8    3   20 1
     9    4    5 1
    10    4    6 1
    11    4   11 1
    12    6    7 am
    13    6   36 1
    14    7    8 2
    15    7    9 am
    16    9   10 1
    17   10   37 1
    18   10   38 1
    19   10   39 1
    20   11   16 ar
    21   11   12 ar
    22   12   13 ar
    23   12   40 1
    24   13   14 ar
    25   13   41 1
    26   14   15 ar
    27   14   17 1
    28   15   16 ar
    29   15   42 1
    30   16   43 1
    31   17   18 2
    32   17   19 1
    33   20   21 2
    34   20   22 am
    35   22   23 1
    36   22   44 1
    37   23   28 ar
    38   23   24 ar
    39   24   25 ar
    40   24   45 1
    41   25   26 ar
    42   25   46 1
    43   26   27 ar
    44   26   47 1
    45   27   28 ar
    46   27   48 1
    47   28   29 1
    48   29   30 1
    49   29   31 1
    50   29   32 1
@<TRIPOS>MOLECULE
ZINC38985352
   52    56     0     0     0
SMALL
USER_CHARGES

@<TRIPOS>ATOM
      1 C1         -0.0167    1.3781    0.0096 C.ar      1 <0>        -0.1080
      2 C2          1.1709    2.0855    0.0021 C.ar      1 <0>        -0.1230
      3 C3          2.3773    1.4107   -0.0130 C.ar      1 <0>        -0.0947
      4 C4          2.3960    0.0285   -0.0201 C.ar      1 <0>        -0.0998
      5 C5          1.2084   -0.6789   -0.0117 C.ar      1 <0>        -0.0946
      6 C6          0.0021   -0.0041    0.0020 C.ar      1 <0>        -0.1228
      7 C7          3.7112   -0.7071   -0.0376 C.3       1 <0>         0.1018
      8 O1          4.1410   -0.9464    1.3041 O.3       1 <0>        -0.3048
      9 C8          5.3186   -1.6050    1.4665 C.ar      1 <0>         0.1318
     10 C9          6.0479   -2.0073    0.3557 C.ar      1 <0>        -0.1962
     11 C10         7.2460   -2.6773    0.5162 C.ar      1 <0>        -0.0775
     12 C11         7.7242   -2.9507    1.7822 C.ar      1 <0>        -0.1369
     13 C12         6.9984   -2.5503    2.9024 C.ar      1 <0>         0.0029
     14 C13         5.7939   -1.8697    2.7402 C.ar      1 <0>        -0.1161
     15 C14         7.5098   -2.8434    4.2641 C.2       1 <0>         0.0261
     16 C15         8.6643   -3.4844    4.5299 C.2       1 <0>        -0.1440
     17 C16         8.7170   -3.5246    6.0468 C.3       1 <0>        -0.0566
     18 H1          9.5891   -2.9849    6.4161 H         1 <0>         0.1815
     19 N1          7.4755   -2.8402    6.4441 N.2       1 <0>        -0.1090
     20 N2          6.8825   -2.4977    5.4189 N.2       1 <0>        -0.1374
     21 C17         8.7258   -4.9481    6.5414 C.2       1 <0>         0.5730
     22 O2          7.7022   -5.4547    6.9486 O.2       1 <0>        -0.4585
     23 N3          9.8713   -5.6580    6.5311 N.am      1 <0>        -0.5690
     24 N4          9.8795   -6.9814    6.9909 N.2       1 <0>        -0.1152
     25 C18        10.9935   -7.6719    6.9809 C.2       1 <0>         0.0745
     26 C19        11.1905   -9.0734    7.4190 C.ar      1 <0>        -0.1005
     27 C20        10.3346  -10.0371    7.9403 C.ar      1 <0>        -0.0329
     28 C21        10.8251  -11.2871    8.2611 C.ar      1 <0>        -0.1383
     29 C22        12.1644  -11.5785    8.0639 C.ar      1 <0>        -0.0641
     30 C23        13.0218  -10.6284    7.5469 C.ar      1 <0>        -0.1345
     31 C24        12.5460   -9.3638    7.2179 C.ar      1 <0>         0.1576
     32 N5         13.1831   -8.2453    6.6919 N.am      1 <0>        -0.6427
     33 C25        12.3252   -7.2244    6.5244 C.2       1 <0>         0.5458
     34 O3         12.5979   -6.1253    6.0791 O.2       1 <0>        -0.5003
     35 H2         -0.9591    1.9053    0.0259 H         1 <0>         0.1252
     36 H3          1.1563    3.1654    0.0076 H         1 <0>         0.1261
     37 H4          3.3051    1.9634   -0.0196 H         1 <0>         0.1243
     38 H5          1.2231   -1.7588   -0.0176 H         1 <0>         0.1244
     39 H6         -0.9258   -0.5567    0.0082 H         1 <0>         0.1262
     40 H7          3.5884   -1.6586   -0.5549 H         1 <0>         0.0728
     41 H8          4.4573   -0.1052   -0.5563 H         1 <0>         0.0729
     42 H9          5.6776   -1.7963   -0.6367 H         1 <0>         0.1323
     43 H10         7.8096   -2.9882   -0.3511 H         1 <0>         0.1325
     44 H11         8.6604   -3.4751    1.9043 H         1 <0>         0.1266
     45 H12         5.2301   -1.5531    3.6052 H         1 <0>         0.1447
     46 H13         9.3843   -3.8782    3.8278 H         1 <0>         0.1848
     47 H14        10.6902   -5.2528    6.2054 H         1 <0>         0.4110
     48 H15         9.2903   -9.8086    8.0940 H         1 <0>         0.1398
     49 H16        10.1636  -12.0384    8.6666 H         1 <0>         0.1383
     50 H17        12.5417  -12.5582    8.3173 H         1 <0>         0.1388
     51 H18        14.0644  -10.8675    7.3980 H         1 <0>         0.1359
     52 H19        14.1265   -8.2081    6.4697 H         1 <0>         0.4258
@<TRIPOS>BOND
     1    1    6 ar
     2    1    2 ar
     3    1   35 1
     4    2    3 ar
     5    2   36 1
     6    3    4 ar
     7    3   37 1
     8    4    5 ar
     9    4    7 1
    10    5    6 ar
    11    5   38 1
    12    6   39 1
    13    7    8 1
    14    7   40 1
    15    7   41 1
    16    8    9 1
    17    9   14 ar
    18    9   10 ar
    19   10   11 ar
    20   10   42 1
    21   11   12 ar
    22   11   43 1
    23   12   13 ar
    24   12   44 1
    25   13   14 ar
    26   13   15 1
    27   14   45 1
    28   15   20 1
    29   15   16 2
    30   16   17 1
    31   16   46 1
    32   17   18 1
    33   17   19 1
    34   17   21 1
    35   19   20 2
    36   21   22 2
    37   21   23 am
    38   23   24 1
    39   23   47 1
    40   24   25 2
    41   25   33 1
    42   25   26 1
    43   26   31 ar
    44   26   27 ar
    45   27   28 ar
    46   27   48 1
    47   28   29 ar
    48   28   49 1
    49   29   30 ar
    50   29   50 1
    51   30   31 ar
    52   30   51 1
    53   31   32 1
    54   32   33 am
    55   32   52 1
    56   33   34 2
@<TRIPOS>MOLECULE
ZINC09018289
   60    63     0     0     0
SMALL
USER_CHARGES
ethyl 9-[2-[(5-ethyl-3-oxo-2,6,8,9-tetrazabicyclo[4.3.0]nona-4,7,9-trien-7-yl)sulfanyl]propanoylamino]-8-thiabicyclo[5.3.0]deca-9,11-diene-10-carboxylate
@<TRIPOS>ATOM
      1 C1          1.2506    4.1112    1.4486 C.3       1 <0>        -0.1546
      2 C2          1.1185    3.6068    0.0102 C.3       1 <0>        -0.1009
      3 C3          1.1391    2.0999    0.0025 C.2       1 <0>         0.1786
      4 C4         -0.0171    1.4132    0.0098 C.2       1 <0>        -0.2325
      5 C5          0.0021   -0.0041    0.0020 C.2       1 <0>         0.5565
      6 O1         -1.0430   -0.6295    0.0090 O.2       1 <0>        -0.4990
      7 N1          1.1814   -0.6575   -0.0128 N.am      1 <0>        -0.6123
      8 H1          1.1997   -1.6273   -0.0185 H         1 <0>         0.4385
      9 C6          2.3665    0.0589   -0.0202 C.2       1 <0>         0.4621
     10 N2          2.3410    1.4302   -0.0126 N.pl3     1 <0>        -0.4426
     11 C7          3.6363    1.8744   -0.0230 C.2       1 <0>         0.1965
     12 N3          4.4235    0.8265   -0.0364 N.2       1 <0>        -0.2741
     13 N4          3.6210   -0.3216   -0.0347 N.2       1 <0>        -0.3095
     14 S1          4.1538    3.5587   -0.0186 S.3       1 <0>         0.1150
     15 C8          5.9651    3.4613   -0.0373 C.3       1 <0>        -0.1245
     16 H2          6.3046    2.8484    0.7977 H         1 <0>         0.1338
     17 C9          6.4285    2.8327   -1.3529 C.3       1 <0>        -0.1505
     18 C10         6.5439    4.8470    0.0887 C.2       1 <0>         0.5387
     19 O2          5.8637    5.8149   -0.1784 O.2       1 <0>        -0.4788
     20 N5          7.8176    5.0106    0.4981 N.am      1 <0>        -0.6112
     21 C11         8.3500    6.2851    0.6140 C.2       1 <0>         0.0738
     22 C12         9.6239    6.6538    1.0200 C.2       1 <0>        -0.2007
     23 C13         9.9407    8.0757    1.0483 C.2       1 <0>        -0.0590
     24 C14         8.9285    8.8916    0.6847 C.2       1 <0>        -0.1971
     25 S2          7.5841    7.8051    0.2942 S.3       1 <0>         0.2448
     26 C15         8.9316   10.3877    0.6358 C.3       1 <0>        -0.0390
     27 C16        10.1821   10.8677   -0.1129 C.3       1 <0>        -0.1158
     28 C17        11.3109   11.0446    0.8978 C.3       1 <0>        -0.1225
     29 C18        11.1806   10.0137    2.0172 C.3       1 <0>        -0.1236
     30 C19        11.3109    8.6013    1.4577 C.3       1 <0>        -0.0599
     31 C20        10.6176    5.6485    1.4027 C.2       1 <0>         0.5292
     32 O3         11.3635    5.1804    0.5635 O.2       1 <0>        -0.4924
     33 O4         10.7057    5.2416    2.6856 O.3       1 <0>        -0.3501
     34 C21        11.7137    4.2425    2.9926 C.3       1 <0>         0.0578
     35 C22        11.6633    3.9090    4.4849 C.3       1 <0>        -0.1534
     36 H3          0.4194    3.7333    2.0440 H         1 <0>         0.0672
     37 H4          2.1909    3.7585    1.8724 H         1 <0>         0.0633
     38 H5          1.2356    5.2011    1.4543 H         1 <0>         0.0821
     39 H6          1.9497    3.9846   -0.5851 H         1 <0>         0.0963
     40 H7          0.1782    3.9594   -0.4135 H         1 <0>         0.1150
     41 H8         -0.9593    1.9411    0.0172 H         1 <0>         0.1866
     42 H9          7.5168    2.7742   -1.3642 H         1 <0>         0.0784
     43 H10         6.0098    1.8304   -1.4440 H         1 <0>         0.0926
     44 H11         6.0889    3.4456   -2.1879 H         1 <0>         0.0800
     45 H12         8.3616    4.2364    0.7117 H         1 <0>         0.4225
     46 H13         8.0396   10.7366    0.1156 H         1 <0>         0.0772
     47 H14         8.9403   10.7849    1.6508 H         1 <0>         0.0925
     48 H15        10.4702   10.1270   -0.8589 H         1 <0>         0.0682
     49 H16         9.9745   11.8197   -0.6016 H         1 <0>         0.0728
     50 H17        12.2695   10.9136    0.3957 H         1 <0>         0.0645
     51 H18        11.2618   12.0473    1.3225 H         1 <0>         0.0661
     52 H19        11.9642   10.1825    2.7558 H         1 <0>         0.0679
     53 H20        10.2078   10.1231    2.4966 H         1 <0>         0.0754
     54 H21        11.9676    8.6159    0.5878 H         1 <0>         0.0808
     55 H22        11.7347    7.9477    2.2201 H         1 <0>         0.0685
     56 H23        11.5199    3.3406    2.4119 H         1 <0>         0.0709
     57 H24        12.7000    4.6321    2.7404 H         1 <0>         0.0725
     58 H25        12.4200    3.1590    4.7153 H         1 <0>         0.0824
     59 H26        11.8571    4.8109    5.0655 H         1 <0>         0.0683
     60 H27        10.6770    3.5194    4.7371 H         1 <0>         0.0669
@<TRIPOS>BOND
     1    1    2 1
     2    1   36 1
     3    1   37 1
     4    1   38 1
     5    2    3 1
     6    2   39 1
     7    2   40 1
     8    3   10 1
     9    3    4 2
    10    4    5 1
    11    4   41 1
    12    5    6 2
    13    5    7 am
    14    7    8 1
    15    7    9 1
    16    9   13 2
    17    9   10 1
    18   10   11 1
    19   11   12 2
    20   11   14 1
    21   12   13 1
    22   14   15 1
    23   15   16 1
    24   15   17 1
    25   15   18 1
    26   17   42 1
    27   17   43 1
    28   17   44 1
    29   18   19 2
    30   18   20 am
    31   20   21 1
    32   20   45 1
    33   21   25 1
    34   21   22 2
    35   22   23 1
    36   22   31 1
    37   23   30 1
    38   23   24 2
    39   24   25 1
    40   24   26 1
    41   26   27 1
    42   26   46 1
    43   26   47 1
    44   27   28 1
    45   27   48 1
    46   27   49 1
    47   28   29 1
    48   28   50 1
    49   28   51 1
    50   29   30 1
    51   29   52 1
    52   29   53 1
    53   30   54 1
    54   30   55 1
    55   31   32 2
    56   31   33 1
    57   33   34 1
    58   34   35 1
    59   34   56 1
    60   34   57 1
    61   35   58 1
    62   35   59 1
    63   35   60 1
@<TRIPOS>MOLECULE
ZINC11682620
   58    60     0     0     0
SMALL
USER_CHARGES
(2-methyl-3-nitro-phenyl)carbamoylmethyl 2-(p-tolylcarbamoylmethylsulfanyl)benzoate
@<TRIPOS>ATOM
      1 C1         -1.0767   18.3643    3.7603 C.3       1 <0>        -0.1150
      2 C2         -1.8957   17.0996    3.7319 C.ar      1 <0>        -0.0984
      3 C3         -1.6482   16.1388    2.7686 C.ar      1 <0>        -0.1005
      4 C4         -2.3970   14.9787    2.7399 C.ar      1 <0>        -0.1163
      5 C5         -3.3994   14.7776    3.6798 C.ar      1 <0>         0.1361
      6 C6         -3.6493   15.7469    4.6423 C.ar      1 <0>        -0.1398
      7 C7         -2.8928   16.9021    4.6694 C.ar      1 <0>        -0.1013
      8 N1         -4.1598   13.6033    3.6534 N.am      1 <0>        -0.6684
      9 C8         -3.6010   12.4476    3.2429 C.2       1 <0>         0.5338
     10 O1         -2.4199   12.4085    2.9698 O.2       1 <0>        -0.4974
     11 C9         -4.4435   11.2038    3.1234 C.3       1 <0>        -0.2086
     12 S1         -3.4129    9.8294    2.5536 S.3       1 <0>         0.0875
     13 C10        -4.6170    8.5439    2.5045 C.ar      1 <0>        -0.0566
     14 C11        -5.9347    8.8061    2.8628 C.ar      1 <0>        -0.1537
     15 C12        -6.8751    7.7984    2.8226 C.ar      1 <0>        -0.0548
     16 C13        -6.5173    6.5186    2.4263 C.ar      1 <0>        -0.1420
     17 C14        -5.2187    6.2398    2.0624 C.ar      1 <0>        -0.0349
     18 C15        -4.2513    7.2484    2.1025 C.ar      1 <0>        -0.1228
     19 C16        -2.8597    6.9561    1.7203 C.2       1 <0>         0.5073
     20 O2         -2.0231    7.8370    1.7519 O.2       1 <0>        -0.4761
     21 O3         -2.5138    5.7116    1.3354 O.3       1 <0>        -0.3263
     22 C17        -1.1244    5.4961    0.9727 C.3       1 <0>         0.0518
     23 C18        -0.9272    4.0567    0.5726 C.2       1 <0>         0.5206
     24 O4         -1.8652    3.2880    0.5914 O.2       1 <0>        -0.4906
     25 N2          0.2916    3.6234    0.1940 N.am      1 <0>        -0.6645
     26 C19         0.4927    2.2704   -0.1008 C.ar      1 <0>         0.1445
     27 C20        -0.5390    1.5156   -0.6437 C.ar      1 <0>        -0.0692
     28 C21        -0.3372    0.1807   -0.9339 C.ar      1 <0>        -0.1030
     29 C22         0.8906   -0.4049   -0.6840 C.ar      1 <0>        -0.0633
     30 C23         1.9197    0.3438   -0.1437 C.ar      1 <0>        -0.0302
     31 C24         1.7244    1.6797    0.1484 C.ar      1 <0>        -0.0431
     32 C25         2.8465    2.4949    0.7379 C.3       1 <0>        -0.1336
     33 N3          3.2320   -0.2870    0.1225 N.pl3     1 <0>         0.0312
     34 O5          3.3657   -1.4910   -0.0032 O.2       1 <0>        -0.1596
     35 O6          4.1782    0.3981    0.4674 O.3       1 <0>        -0.1552
     36 H1         -1.5569   19.1221    3.1413 H         1 <0>         0.0708
     37 H2         -1.0026   18.7262    4.7858 H         1 <0>         0.0666
     38 H3         -0.0781   18.1592    3.3743 H         1 <0>         0.0669
     39 H4         -0.8688   16.2960    2.0377 H         1 <0>         0.1266
     40 H5         -2.2030   14.2285    1.9875 H         1 <0>         0.1360
     41 H6         -4.4311   15.5954    5.3719 H         1 <0>         0.1259
     42 H7         -3.0834   17.6542    5.4207 H         1 <0>         0.1271
     43 H8         -5.0892   13.6210    3.9306 H         1 <0>         0.4124
     44 H9         -5.2470   11.3767    2.4074 H         1 <0>         0.1221
     45 H10        -4.8701   10.9591    4.0962 H         1 <0>         0.1212
     46 H11        -6.2219    9.8000    3.1727 H         1 <0>         0.1348
     47 H12        -7.8974    8.0074    3.1012 H         1 <0>         0.1350
     48 H13        -7.2622    5.7371    2.3985 H         1 <0>         0.1366
     49 H14        -4.9471    5.2423    1.7500 H         1 <0>         0.1459
     50 H15        -0.4862    5.7269    1.8256 H         1 <0>         0.1125
     51 H16        -0.8623    6.1447    0.1367 H         1 <0>         0.1125
     52 H17         1.0293    4.2495    0.1258 H         1 <0>         0.4198
     53 H18        -1.4968    1.9732   -0.8428 H         1 <0>         0.1626
     54 H19        -1.1391   -0.4068   -1.3560 H         1 <0>         0.1538
     55 H20         1.0460   -1.4491   -0.9119 H         1 <0>         0.1564
     56 H21         3.5094    2.8306   -0.0596 H         1 <0>         0.0934
     57 H22         2.4335    3.3606    1.2557 H         1 <0>         0.0698
     58 H23         3.4081    1.8830    1.4438 H         1 <0>         0.1036
@<TRIPOS>BOND
     1    1    2 1
     2    1   36 1
     3    1   37 1
     4    1   38 1
     5    2    7 ar
     6    2    3 ar
     7    3    4 ar
     8    3   39 1
     9    4    5 ar
    10    4   40 1
    11    5    6 ar
    12    5    8 1
    13    6    7 ar
    14    6   41 1
    15    7   42 1
    16    8    9 am
    17    8   43 1
    18    9   10 2
    19    9   11 1
    20   11   12 1
    21   11   44 1
    22   11   45 1
    23   12   13 1
    24   13   18 ar
    25   13   14 ar
    26   14   15 ar
    27   14   46 1
    28   15   16 ar
    29   15   47 1
    30   16   17 ar
    31   16   48 1
    32   17   18 ar
    33   17   49 1
    34   18   19 1
    35   19   20 2
    36   19   21 1
    37   21   22 1
    38   22   23 1
    39   22   50 1
    40   22   51 1
    41   23   24 2
    42   23   25 am
    43   25   26 1
    44   25   52 1
    45   26   31 ar
    46   26   27 ar
    47   27   28 ar
    48   27   53 1
    49   28   29 ar
    50   28   54 1
    51   29   30 ar
    52   29   55 1
    53   30   31 ar
    54   30   33 1
    55   31   32 1
    56   32   56 1
    57   32   57 1
    58   32   58 1
    59   33   34 2
    60   33   35 1
@<TRIPOS>MOLECULE
ZINC22699892
   69    72     0     0     0
SMALL
USER_CHARGES
(2R,3S)-1-butyl-N'-(3-ethyl-4-oxo-quinazolin-2-yl)-2-(2-methoxyphenyl)-6-oxo-piperidine-3-carbohydrazide
@<TRIPOS>ATOM
      1 C1         11.4564   -1.5029    2.7758 C.3       1 <0>        -0.1525
      2 C2         10.0411   -1.7761    2.2629 C.3       1 <0>        -0.1212
      3 C3          9.2996   -0.4501    2.0815 C.3       1 <0>        -0.1318
      4 C4          7.8843   -0.7233    1.5686 C.3       1 <0>         0.1024
      5 N1          7.1743    0.5463    1.3949 N.am      1 <0>        -0.5919
      6 C5          7.1722    1.1519    0.0691 C.3       1 <0>         0.2178
      7 H1          8.1478    1.6445   -0.0559 H         1 <0>         0.1011
      8 C6          6.0381    2.1706   -0.0522 C.3       1 <0>        -0.0985
      9 H2          6.1260    2.7258   -0.9977 H         1 <0>         0.1150
     10 C7          6.1071    3.1317    1.1406 C.3       1 <0>        -0.1124
     11 C8          5.7689    2.3446    2.4127 C.3       1 <0>        -0.1388
     12 C9          6.5708    1.0757    2.4597 C.2       1 <0>         0.5372
     13 O1          6.6754    0.5019    3.5231 O.2       1 <0>        -0.5515
     14 C10         4.7124    1.4541   -0.0481 C.2       1 <0>         0.5235
     15 O2          4.4884    0.5978    0.7811 O.2       1 <0>        -0.5321
     16 N2          3.7756    1.7648   -0.9660 N.am      1 <0>        -0.5090
     17 N3          2.5431    1.0987   -0.9622 N.pl3     1 <0>        -0.5108
     18 C11         1.5894    1.4150   -1.8966 C.2       1 <0>         0.6455
     19 N4          1.8632    2.3445   -2.7774 N.2       1 <0>        -0.6002
     20 C12         0.9680    2.7056   -3.7268 C.ar      1 <0>         0.2116
     21 C13         1.2575    3.6970   -4.6687 C.ar      1 <0>        -0.1336
     22 C14         0.3236    4.0294   -5.6091 C.ar      1 <0>        -0.0592
     23 C15        -0.9122    3.3962   -5.6443 C.ar      1 <0>        -0.1612
     24 C16        -1.2244    2.4221   -4.7365 C.ar      1 <0>        -0.0269
     25 C17        -0.2903    2.0631   -3.7659 C.ar      1 <0>        -0.2329
     26 C18        -0.5679    1.0207   -2.7686 C.2       1 <0>         0.5679
     27 O3         -1.6312    0.4283   -2.7541 O.2       1 <0>        -0.5042
     28 N5          0.4003    0.7466   -1.8638 N.am      1 <0>        -0.5526
     29 C19         0.1722   -0.2806   -0.8445 C.3       1 <0>         0.0815
     30 C20        -0.4454    0.3628    0.3986 C.3       1 <0>        -0.1742
     31 C21         6.9857    0.0731   -0.9664 C.ar      1 <0>        -0.1491
     32 C22         6.2590   -1.0613   -0.6599 C.ar      1 <0>        -0.0535
     33 C23         6.0867   -2.0509   -1.6097 C.ar      1 <0>        -0.1619
     34 C24         6.6413   -1.9084   -2.8685 C.ar      1 <0>        -0.0687
     35 C25         7.3694   -0.7767   -3.1796 C.ar      1 <0>        -0.2101
     36 C26         7.5386    0.2208   -2.2300 C.ar      1 <0>         0.1447
     37 O4          8.2490    1.3382   -2.5357 O.3       1 <0>        -0.3142
     38 C27         8.7894    1.4225   -3.8559 C.3       1 <0>         0.0228
     39 H3         11.9895   -2.4562    2.9062 H         1 <0>         0.0543
     40 H4         11.4017   -0.9783    3.7411 H         1 <0>         0.0546
     41 H5         11.9955   -0.8778    2.0488 H         1 <0>         0.0527
     42 H6         10.0958   -2.3007    1.2976 H         1 <0>         0.0600
     43 H7          9.5019   -2.4013    2.9899 H         1 <0>         0.0636
     44 H8          9.2449    0.0744    3.0468 H         1 <0>         0.0687
     45 H9          9.8388    0.1751    1.3545 H         1 <0>         0.0599
     46 H10         7.9390   -1.2479    0.6033 H         1 <0>         0.0842
     47 H11         7.3451   -1.3485    2.2956 H         1 <0>         0.0821
     48 H12         7.1211    3.5516    1.2150 H         1 <0>         0.0921
     49 H13         5.3824    3.9467    0.9972 H         1 <0>         0.0874
     50 H14         6.0063    2.9557    3.2960 H         1 <0>         0.1019
     51 H15         4.6974    2.0960    2.4161 H         1 <0>         0.1058
     52 H16         3.9788    2.5414   -1.7181 H         1 <0>         0.4630
     53 H17         2.3399    0.3221   -0.2101 H         1 <0>         0.4674
     54 H18         2.2141    4.1980   -4.6529 H         1 <0>         0.1356
     55 H19         0.5496    4.7958   -6.3358 H         1 <0>         0.1310
     56 H20        -1.6343    3.6759   -6.3971 H         1 <0>         0.1297
     57 H21        -2.1874    1.9344   -4.7715 H         1 <0>         0.1336
     58 H22        -0.5129   -1.0446   -1.2407 H         1 <0>         0.1116
     59 H23         1.1300   -0.7505   -0.5767 H         1 <0>         0.0867
     60 H24        -0.6167   -0.4085    1.1640 H         1 <0>         0.0845
     61 H25        -1.4032    0.8327    0.1308 H         1 <0>         0.0702
     62 H26         0.2397    1.1268    0.7948 H         1 <0>         0.0614
     63 H27         5.8248   -1.1749    0.3224 H         1 <0>         0.1422
     64 H28         5.5183   -2.9369   -1.3682 H         1 <0>         0.1230
     65 H29         6.5053   -2.6829   -3.6088 H         1 <0>         0.1246
     66 H30         7.8027   -0.6661   -4.1627 H         1 <0>         0.1300
     67 H31         9.3367    2.3701   -3.9682 H         1 <0>         0.1048
     68 H32         7.9714    1.3823   -4.5902 H         1 <0>         0.0580
     69 H33         9.4761    0.5801   -4.0255 H         1 <0>         0.0574
@<TRIPOS>BOND
     1    1    2 1
     2    1   39 1
     3    1   40 1
     4    1   41 1
     5    2    3 1
     6    2   42 1
     7    2   43 1
     8    3    4 1
     9    3   44 1
    10    3   45 1
    11    4    5 1
    12    4   46 1
    13    4   47 1
    14    5   12 am
    15    5    6 1
    16    6    7 1
    17    6    8 1
    18    6   31 1
    19    8    9 1
    20    8   10 1
    21    8   14 1
    22   10   11 1
    23   10   48 1
    24   10   49 1
    25   11   12 1
    26   11   50 1
    27   11   51 1
    28   12   13 2
    29   14   15 2
    30   14   16 am
    31   16   17 1
    32   16   52 1
    33   17   18 1
    34   17   53 1
    35   18   28 1
    36   18   19 2
    37   19   20 1
    38   20   25 ar
    39   20   21 ar
    40   21   22 ar
    41   21   54 1
    42   22   23 ar
    43   22   55 1
    44   23   24 ar
    45   23   56 1
    46   24   25 ar
    47   24   57 1
    48   25   26 1
    49   26   27 2
    50   26   28 am
    51   28   29 1
    52   29   30 1
    53   29   58 1
    54   29   59 1
    55   30   60 1
    56   30   61 1
    57   30   62 1
    58   31   36 ar
    59   31   32 ar
    60   32   33 ar
    61   32   63 1
    62   33   34 ar
    63   33   64 1
    64   34   35 ar
    65   34   65 1
    66   35   36 ar
    67   35   66 1
    68   36   37 1
    69   37   38 1
    70   38   67 1
    71   38   68 1
    72   38   69 1
@<TRIPOS>MOLECULE
ZINC02697390
   61    64     0     0     0
SMALL
USER_CHARGES

@<TRIPOS>ATOM
      1 C1         -1.2700    0.6646   -0.7093 C.3       1 <0>        -0.1525
      2 C2         -1.0719   -0.8507   -0.7844 C.3       1 <0>         0.0633
      3 O1         -0.1398   -1.1584   -1.8229 O.3       1 <0>        -0.3483
      4 C3          0.1480   -2.4631   -2.0219 C.2       1 <0>         0.5309
      5 O2         -0.3800   -3.3156   -1.3304 O.2       1 <0>        -0.5068
      6 C4          1.0560   -2.8366   -3.0262 C.2       1 <0>        -0.2787
      7 C5          1.4765   -4.1315   -3.1477 C.2       1 <0>         0.2472
      8 N1          2.3350   -4.4756   -4.0992 N.2       1 <0>        -0.5138
      9 C6          2.8447   -3.6513   -4.9795 C.2       1 <0>         0.3913
     10 N2          2.5548   -2.3075   -5.0344 N.am      1 <0>        -0.5765
     11 C7          3.1391   -1.5624   -5.9816 C.2       1 <0>         0.5530
     12 O3          2.9135   -0.3694   -6.0688 O.2       1 <0>        -0.4575
     13 C8          4.0611   -2.2282   -6.9120 C.2       1 <0>        -0.2364
     14 C9          4.7714   -1.7058   -7.9453 C.2       1 <0>         0.0923
     15 C10         5.5250   -2.5924   -8.8404 C.ar      1 <0>        -0.0958
     16 C11         5.1948   -3.9508   -8.9251 C.ar      1 <0>        -0.0824
     17 C12         5.9037   -4.7800   -9.7658 C.ar      1 <0>        -0.1736
     18 C13         6.9461   -4.2731  -10.5306 C.ar      1 <0>         0.1315
     19 C14         7.2816   -2.9220  -10.4519 C.ar      1 <0>         0.1070
     20 C15         6.5727   -2.0814   -9.6166 C.ar      1 <0>        -0.1332
     21 O4          8.3035   -2.4306  -11.2026 O.3       1 <0>        -0.2980
     22 C16         8.5927   -1.0372  -11.0722 C.3       1 <0>         0.0218
     23 O5          7.6414   -5.0963  -11.3579 O.3       1 <0>        -0.2714
     24 C17         7.2457   -6.4691  -11.3898 C.3       1 <0>         0.0334
     25 C18         8.1233   -7.2225  -12.3559 C.2       1 <0>         0.5191
     26 O6          9.0011   -6.6411  -12.9578 O.2       1 <0>        -0.5128
     27 N3          7.9326   -8.5423  -12.5510 N.am      1 <0>        -0.8497
     28 S1          3.9948   -3.9104   -6.3160 S.3       1 <0>         0.1300
     29 C19         1.5916   -1.8197   -4.0076 C.3       1 <0>         0.2430
     30 H1          2.0845   -1.0316   -3.4383 H         1 <0>         0.0994
     31 C20         0.4174   -1.2025   -4.7227 C.ar      1 <0>        -0.1022
     32 C21        -0.1884   -1.8768   -5.7664 C.ar      1 <0>        -0.1037
     33 C22        -1.2656   -1.3107   -6.4223 C.ar      1 <0>        -0.1209
     34 C23        -1.7371   -0.0705   -6.0343 C.ar      1 <0>        -0.1100
     35 C24        -1.1319    0.6033   -4.9900 C.ar      1 <0>        -0.1199
     36 C25        -0.0575    0.0353   -4.3312 C.ar      1 <0>        -0.0698
     37 C26         0.9611   -5.1771   -2.1927 C.3       1 <0>        -0.1138
     38 H2         -0.3156    1.1456   -0.4952 H         1 <0>         0.0657
     39 H3         -1.6546    1.0283   -1.6622 H         1 <0>         0.0664
     40 H4         -1.9810    0.8992    0.0828 H         1 <0>         0.0792
     41 H5         -0.6873   -1.2145    0.1685 H         1 <0>         0.0668
     42 H6         -2.0263   -1.3318   -0.9985 H         1 <0>         0.0666
     43 H7          4.7818   -0.6383   -8.1084 H         1 <0>         0.1654
     44 H8          4.3848   -4.3479   -8.3312 H         1 <0>         0.1384
     45 H9          5.6485   -5.8275   -9.8301 H         1 <0>         0.1465
     46 H10         6.8286   -1.0338   -9.5585 H         1 <0>         0.1491
     47 H11         9.4270   -0.7768  -11.7236 H         1 <0>         0.1058
     48 H12         7.7152   -0.4560  -11.3556 H         1 <0>         0.0585
     49 H13         8.8564   -0.8161  -10.0380 H         1 <0>         0.0584
     50 H14         7.3483   -6.9000  -10.3938 H         1 <0>         0.0994
     51 H15         6.2067   -6.5403  -11.7113 H         1 <0>         0.0989
     52 H16         7.2306   -9.0073  -12.0695 H         1 <0>         0.4039
     53 H17         8.4975   -9.0272  -13.1728 H         1 <0>         0.4110
     54 H18         0.1800   -2.8457   -6.0696 H         1 <0>         0.1066
     55 H19        -1.7384   -1.8371   -7.2382 H         1 <0>         0.1221
     56 H20        -2.5782    0.3721   -6.5472 H         1 <0>         0.1233
     57 H21        -1.5001    1.5723   -4.6870 H         1 <0>         0.1247
     58 H22         0.4130    0.5600   -3.5129 H         1 <0>         0.1268
     59 H23        -0.0030   -5.5457   -2.5431 H         1 <0>         0.0945
     60 H24         1.6696   -6.0038   -2.1422 H         1 <0>         0.0771
     61 H25         0.8439   -4.7380   -1.2019 H         1 <0>         0.1097
@<TRIPOS>BOND
     1    1    2 1
     2    1   38 1
     3    1   39 1
     4    1   40 1
     5    2    3 1
     6    2   41 1
     7    2   42 1
     8    3    4 1
     9    4    5 2
    10    4    6 1
    11    6   29 1
    12    6    7 2
    13    7    8 1
    14    7   37 1
    15    8    9 2
    16    9   28 1
    17    9   10 1
    18   10   11 am
    19   10   29 1
    20   11   12 2
    21   11   13 1
    22   13   14 2
    23   13   28 1
    24   14   15 1
    25   14   43 1
    26   15   20 ar
    27   15   16 ar
    28   16   17 ar
    29   16   44 1
    30   17   18 ar
    31   17   45 1
    32   18   19 ar
    33   18   23 1
    34   19   20 ar
    35   19   21 1
    36   20   46 1
    37   21   22 1
    38   22   47 1
    39   22   48 1
    40   22   49 1
    41   23   24 1
    42   24   25 1
    43   24   50 1
    44   24   51 1
    45   25   26 2
    46   25   27 am
    47   27   52 1
    48   27   53 1
    49   29   30 1
    50   29   31 1
    51   31   36 ar
    52   31   32 ar
    53   32   33 ar
    54   32   54 1
    55   33   34 ar
    56   33   55 1
    57   34   35 ar
    58   34   56 1
    59   35   36 ar
    60   35   57 1
    61   36   58 1
    62   37   59 1
    63   37   60 1
    64   37   61 1
@<TRIPOS>MOLECULE
ZINC63744070
   67    70     0     0     0
SMALL
USER_CHARGES

@<TRIPOS>ATOM
      1 C1         -0.5034   -6.7246    5.0384 C.3       1 <0>        -0.1009
      2 C2         -0.5091   -6.0373    3.6972 C.ar      1 <0>         0.1992
      3 C3         -0.5110   -6.7813    2.5277 C.ar      1 <0>        -0.2864
      4 C4         -0.5162   -6.1093    1.3153 C.ar      1 <0>         0.1969
      5 N1         -0.5191   -4.7866    1.3110 N.ar      1 <0>        -0.5824
      6 C5         -0.5171   -4.1058    2.4468 C.ar      1 <0>         0.5597
      7 N2         -0.5177   -4.7168    3.6217 N.ar      1 <0>        -0.4656
      8 N3         -0.5198   -2.7180    2.4049 N.pl3     1 <0>        -0.6415
      9 C6         -0.4078   -1.9982    3.5634 C.2       1 <0>         0.5918
     10 N4         -0.1907   -2.6202    4.7096 N.2       1 <0>        -0.6586
     11 C7         -0.0807   -1.9134    5.8472 C.2       1 <0>         0.4919
     12 O1         -0.1812   -0.6982    5.8223 O.2       1 <0>        -0.5630
     13 C8          0.1602   -2.6034    7.1189 C.2       1 <0>        -0.1248
     14 C9          0.2706   -1.8944    8.2602 C.2       1 <0>        -0.0971
     15 C10         0.5121   -2.5862    9.5352 C.ar      1 <0>        -0.0805
     16 C11         0.6336   -3.9800    9.5657 C.ar      1 <0>        -0.0739
     17 C12         0.8601   -4.6229   10.7619 C.ar      1 <0>        -0.1489
     18 C13         0.9678   -3.8899   11.9381 C.ar      1 <0>         0.1183
     19 C14         0.8479   -2.5053   11.9132 C.ar      1 <0>        -0.2080
     20 C15         0.6270   -1.8524   10.7213 C.ar      1 <0>        -0.0717
     21 O2          1.1904   -4.5286   13.1152 O.3       1 <0>        -0.3189
     22 C16         1.2905   -3.7152   14.2858 C.3       1 <0>         0.0276
     23 N5         -0.5202   -0.6386    3.5354 N.2       1 <0>        -0.6684
     24 C17        -0.6492    0.0596    2.2540 C.3       1 <0>         0.0754
     25 C18        -0.6335    1.5708    2.4927 C.3       1 <0>        -0.0743
     26 C19        -0.8884    2.2875    1.1918 C.2       1 <0>         0.1096
     27 C20        -2.0775    2.7329    0.7299 C.ar      1 <0>        -0.2148
     28 C21        -3.4380    2.6842    1.2813 C.ar      1 <0>         0.0553
     29 C22        -4.4528    3.2261    0.5741 C.ar      1 <0>        -0.2401
     30 C23        -4.2381    3.8349   -0.6771 C.ar      1 <0>         0.2930
     31 C24        -3.0091    3.9163   -1.2476 C.ar      1 <0>        -0.2753
     32 C25        -1.8762    3.3788   -0.5875 C.ar      1 <0>         0.3469
     33 N6         -0.6082    3.3335   -0.9260 N.pl3     1 <0>        -0.6080
     34 C26         0.1361    2.6590    0.1434 C.3       1 <0>         0.0636
     35 O3         -5.2997    4.3597   -1.3376 O.3       1 <0>        -0.2912
     36 C27        -6.5758    4.2531   -0.7032 C.3       1 <0>         0.0117
     37 C28        -0.5179   -6.8763    0.0181 C.3       1 <0>        -0.1009
     38 H1         -1.5263   -6.8175    5.4033 H         1 <0>         0.0798
     39 H2         -0.0625   -7.7162    4.9366 H         1 <0>         0.0722
     40 H3          0.0826   -6.1372    5.7452 H         1 <0>         0.0847
     41 H4         -0.5082   -7.8608    2.5603 H         1 <0>         0.1353
     42 H5         -0.6011   -2.2586    1.5545 H         1 <0>         0.4061
     43 H6          0.2492   -3.6795    7.1410 H         1 <0>         0.1151
     44 H7          0.1816   -0.8182    8.2381 H         1 <0>         0.1241
     45 H8          0.5494   -4.5504    8.6525 H         1 <0>         0.1359
     46 H9          0.9540   -5.6985   10.7865 H         1 <0>         0.1302
     47 H10         0.9320   -1.9403   12.8298 H         1 <0>         0.1262
     48 H11         0.5385   -0.7762   10.7023 H         1 <0>         0.1262
     49 H12         1.4683   -4.3490   15.1545 H         1 <0>         0.0984
     50 H13         2.1177   -3.0146   14.1718 H         1 <0>         0.0546
     51 H14         0.3618   -3.1615   14.4240 H         1 <0>         0.0547
     52 H15         0.1830   -0.2144    1.6056 H         1 <0>         0.0149
     53 H16        -1.5885   -0.2235    1.7789 H         1 <0>         0.0135
     54 H17        -1.4107    1.8333    3.2105 H         1 <0>         0.1085
     55 H18         0.3391    1.8665    2.8859 H         1 <0>         0.1077
     56 H19        -3.6243    2.2211    2.2390 H         1 <0>         0.1673
     57 H20        -5.4538    3.1912    0.9780 H         1 <0>         0.1597
     58 H21        -2.8941    4.3932   -2.2098 H         1 <0>         0.1601
     59 H22         0.8810    3.3320    0.5680 H         1 <0>         0.1663
     60 H23         0.6178    1.7619   -0.2455 H         1 <0>         0.1662
     61 H24        -6.5472    4.7648    0.2587 H         1 <0>         0.0733
     62 H25        -7.3356    4.7114   -1.3362 H         1 <0>         0.1183
     63 H26        -6.8178    3.2016   -0.5484 H         1 <0>         0.0736
     64 H27        -1.5460   -7.0638   -0.2917 H         1 <0>         0.0790
     65 H28        -0.0078   -6.2938   -0.7491 H         1 <0>         0.0753
     66 H29        -0.0013   -7.8260    0.1568 H         1 <0>         0.0775
     67 H30        -0.2271    3.6895   -1.7439 H         1 <0>         0.4494
@<TRIPOS>BOND
     1    1    2 1
     2    1   38 1
     3    1   39 1
     4    1   40 1
     5    2    7 ar
     6    2    3 ar
     7    3    4 ar
     8    3   41 1
     9    4    5 ar
    10    4   37 1
    11    5    6 ar
    12    6    7 ar
    13    6    8 1
    14    8    9 1
    15    8   42 1
    16    9   10 2
    17    9   23 1
    18   10   11 1
    19   11   12 2
    20   11   13 1
    21   13   14 2
    22   13   43 1
    23   14   15 1
    24   14   44 1
    25   15   20 ar
    26   15   16 ar
    27   16   17 ar
    28   16   45 1
    29   17   18 ar
    30   17   46 1
    31   18   19 ar
    32   18   21 1
    33   19   20 ar
    34   19   47 1
    35   20   48 1
    36   21   22 1
    37   22   49 1
    38   22   50 1
    39   22   51 1
    40   23   24 1
    41   24   25 1
    42   24   52 1
    43   24   53 1
    44   25   26 1
    45   25   54 1
    46   25   55 1
    47   26   34 1
    48   26   27 2
    49   27   32 ar
    50   27   28 ar
    51   28   29 ar
    52   28   56 1
    53   29   30 ar
    54   29   57 1
    55   30   31 ar
    56   30   35 1
    57   31   32 ar
    58   31   58 1
    59   32   33 2
    60   33   34 1
    61   33   67 1
    62   34   59 1
    63   34   60 1
    64   35   36 1
    65   36   61 1
    66   36   62 1
    67   36   63 1
    68   37   64 1
    69   37   65 1
    70   37   66 1
@<TRIPOS>MOLECULE
ZINC09529619
   66    69     0     0     0
SMALL
USER_CHARGES
ethyl 4-[2-[2-[1-[(7,7-dioxo-7$l^{6}-thia-8,10-diazabicyclo[4.4.0]deca-2,4,9,11-tetraen-9-yl)methyl]cyclopentyl]acetyl]oxyacetyl]aminobenzoate
@<TRIPOS>ATOM
      1 C1          4.4583   -0.8159  -12.6394 C.3       1 <0>        -0.1538
      2 C2          2.9665   -0.5316  -12.8247 C.3       1 <0>         0.0631
      3 O1          2.3961   -0.0971  -11.5620 O.3       1 <0>        -0.3542
      4 C3          1.0808    0.1956  -11.5534 C.2       1 <0>         0.5117
      5 O2          0.4284    0.0907  -12.5730 O.2       1 <0>        -0.5074
      6 C4          0.4333    0.6433  -10.3065 C.ar      1 <0>        -0.1432
      7 C5         -0.9313    0.9475  -10.2956 C.ar      1 <0>        -0.0326
      8 C6         -1.5325    1.3646   -9.1298 C.ar      1 <0>        -0.1544
      9 C7         -0.7838    1.4838   -7.9630 C.ar      1 <0>         0.1819
     10 C8          0.5756    1.1870   -7.9713 C.ar      1 <0>        -0.1350
     11 C9          1.1824    0.7642   -9.1322 C.ar      1 <0>        -0.0395
     12 N1         -1.3960    1.9070   -6.7841 N.am      1 <0>        -0.6709
     13 C10        -1.0091    1.3906   -5.6009 C.2       1 <0>         0.5157
     14 O3         -0.0709    0.6237   -5.5516 O.2       1 <0>        -0.4869
     15 C11        -1.7423    1.7662   -4.3390 C.3       1 <0>         0.0495
     16 O4         -1.1395    1.0841   -3.2077 O.3       1 <0>        -0.3322
     17 C12        -1.6123    1.3900   -1.9892 C.2       1 <0>         0.4640
     18 O5         -2.5612    2.1295   -1.8775 O.2       1 <0>        -0.5035
     19 C13        -0.9595    0.8109   -0.7606 C.3       1 <0>        -0.1108
     20 C14        -1.6337    1.3780    0.4904 C.3       1 <0>        -0.0266
     21 C15        -1.5556    2.9186    0.4805 C.3       1 <0>        -0.1133
     22 C16        -1.3305    3.2971    1.9655 C.3       1 <0>        -0.1272
     23 C17        -0.3804    2.1794    2.4629 C.3       1 <0>        -0.1318
     24 C18        -0.8866    0.9080    1.7508 C.3       1 <0>        -0.0940
     25 C19        -3.0945    0.9267    0.5482 C.3       1 <0>        -0.0837
     26 C20        -3.1523   -0.5753    0.6569 C.2       1 <0>         0.4419
     27 N2         -2.0462   -1.2169    0.7854 N.2       1 <0>        -0.5425
     28 C21        -1.8724   -2.5661    0.8497 C.ar      1 <0>         0.1968
     29 C22        -0.6497   -3.1051    1.2594 C.ar      1 <0>        -0.1072
     30 C23        -0.4906   -4.4730    1.3304 C.ar      1 <0>        -0.0541
     31 C24        -1.5316   -5.3225    1.0000 C.ar      1 <0>        -0.1394
     32 C25        -2.7480   -4.8001    0.5881 C.ar      1 <0>        -0.0023
     33 C26        -2.9106   -3.4410    0.5107 C.ar      1 <0>        -0.7049
     34 S1         -4.4337   -2.7224   -0.0322 S.o2      1 <0>         2.6619
     35 O6         -4.3556   -2.5893   -1.4448 O.2       1 <0>        -0.9282
     36 O7         -5.4845   -3.4210    0.6213 O.2       1 <0>        -0.9331
     37 N3         -4.3851   -1.1811    0.6186 N.pl3     1 <0>        -1.0575
     38 H1          4.8865   -1.1421  -13.5873 H         1 <0>         0.0816
     39 H2          4.9624    0.0912  -12.3060 H         1 <0>         0.0675
     40 H3          4.5889   -1.5994  -11.8930 H         1 <0>         0.0677
     41 H4          2.4623   -1.4386  -13.1581 H         1 <0>         0.0716
     42 H5          2.8359    0.2520  -13.5711 H         1 <0>         0.0716
     43 H6         -1.5130    0.8549  -11.2008 H         1 <0>         0.1439
     44 H7         -2.5866    1.5994   -9.1206 H         1 <0>         0.1390
     45 H8          1.1546    1.2849   -7.0648 H         1 <0>         0.1481
     46 H9          2.2367    0.5301   -9.1370 H         1 <0>         0.1436
     47 H10        -2.1004    2.5732   -6.8155 H         1 <0>         0.4174
     48 H11        -2.7883    1.4720   -4.4253 H         1 <0>         0.1086
     49 H12        -1.6792    2.8440   -4.1892 H         1 <0>         0.1081
     50 H13        -1.0651   -0.2739   -0.7701 H         1 <0>         0.1252
     51 H14         0.0985    1.0730   -0.7535 H         1 <0>         0.1115
     52 H15        -0.7172    3.2541   -0.1299 H         1 <0>         0.0658
     53 H16        -2.4896    3.3457    0.1153 H         1 <0>         0.0805
     54 H17        -2.2712    3.2777    2.5159 H         1 <0>         0.0662
     55 H18        -0.8539    4.2739    2.0472 H         1 <0>         0.0657
     56 H19        -0.4569    2.0670    3.5443 H         1 <0>         0.0636
     57 H20         0.6477    2.3956    2.1725 H         1 <0>         0.0647
     58 H21        -1.5649    0.3591    2.4041 H         1 <0>         0.0690
     59 H22        -0.0437    0.2760    1.4713 H         1 <0>         0.0746
     60 H23        -3.5785    1.3727    1.4170 H         1 <0>         0.1079
     61 H24        -3.6094    1.2454   -0.3581 H         1 <0>         0.1229
     62 H25         0.1692   -2.4512    1.5203 H         1 <0>         0.1433
     63 H26         0.4562   -4.8854    1.6466 H         1 <0>         0.1385
     64 H27        -1.3965   -6.3922    1.0626 H         1 <0>         0.1383
     65 H28        -3.5628   -5.4601    0.3293 H         1 <0>         0.1371
     66 H29        -5.1824   -0.7381    0.9487 H         1 <0>         0.4401
@<TRIPOS>BOND
     1    1    2 1
     2    1   38 1
     3    1   39 1
     4    1   40 1
     5    2    3 1
     6    2   41 1
     7    2   42 1
     8    3    4 1
     9    4    5 2
    10    4    6 1
    11    6   11 ar
    12    6    7 ar
    13    7    8 ar
    14    7   43 1
    15    8    9 ar
    16    8   44 1
    17    9   10 ar
    18    9   12 1
    19   10   11 ar
    20   10   45 1
    21   11   46 1
    22   12   13 am
    23   12   47 1
    24   13   14 2
    25   13   15 1
    26   15   16 1
    27   15   48 1
    28   15   49 1
    29   16   17 1
    30   17   18 2
    31   17   19 1
    32   19   20 1
    33   19   50 1
    34   19   51 1
    35   20   24 1
    36   20   21 1
    37   20   25 1
    38   21   22 1
    39   21   52 1
    40   21   53 1
    41   22   23 1
    42   22   54 1
    43   22   55 1
    44   23   24 1
    45   23   56 1
    46   23   57 1
    47   24   58 1
    48   24   59 1
    49   25   26 1
    50   25   60 1
    51   25   61 1
    52   26   37 1
    53   26   27 2
    54   27   28 1
    55   28   33 ar
    56   28   29 ar
    57   29   30 ar
    58   29   62 1
    59   30   31 ar
    60   30   63 1
    61   31   32 ar
    62   31   64 1
    63   32   33 ar
    64   32   65 1
    65   33   34 1
    66   34   35 2
    67   34   36 2
    68   34   37 1
    69   37   66 1
@<TRIPOS>MOLECULE
ZINC02645040
   67    70     0     0     0
SMALL
USER_CHARGES
methyl 4-[3-[2-[(2R)-2-acetamido-3-(1H-indol-3-yl)propanoyl]oxyacetyl]-2,5-dimethyl-pyrrol-1-yl]benzoate
@<TRIPOS>ATOM
      1 C1         -5.7081    3.1855   -2.2602 C.3       1 <0>        -0.0888
      2 C2         -5.8563    3.9439   -0.9664 C.2       1 <0>         0.0203
      3 C3         -6.9108    4.7024   -0.6249 C.2       1 <0>        -0.1469
      4 C4         -6.6173    5.2461    0.7085 C.2       1 <0>        -0.2591
      5 C5         -5.3784    4.7442    1.0587 C.2       1 <0>         0.1282
      6 N1         -4.9402    3.9661    0.0489 N.pl3     1 <0>        -0.3991
      7 C6         -3.7204    3.2838    0.0385 C.ar      1 <0>         0.1435
      8 C7         -3.7035    1.8932    0.0304 C.ar      1 <0>        -0.1166
      9 C8         -2.5038    1.2175    0.0205 C.ar      1 <0>        -0.0398
     10 C9         -1.3019    1.9310    0.0187 C.ar      1 <0>        -0.1159
     11 C10        -1.3229    3.3284    0.0323 C.ar      1 <0>        -0.0465
     12 C11        -2.5265    3.9972    0.0367 C.ar      1 <0>        -0.1199
     13 C12        -0.0144    1.2108    0.0087 C.2       1 <0>         0.5076
     14 O1          0.0021   -0.0041    0.0020 O.2       1 <0>        -0.4981
     15 O2          1.1432    1.9003    0.0013 O.3       1 <0>        -0.3539
     16 C13         2.3715    1.1261   -0.0145 C.3       1 <0>         0.0362
     17 C14        -4.6447    5.0188    2.3461 C.3       1 <0>        -0.1003
     18 C15        -7.4646    6.1374    1.5035 C.2       1 <0>         0.4292
     19 O3         -7.0941    6.5112    2.5969 O.2       1 <0>        -0.4441
     20 C16        -8.7967    6.5905    0.9638 C.3       1 <0>         0.0437
     21 O4         -9.4405    7.4606    1.9317 O.3       1 <0>        -0.3407
     22 C17       -10.6445    7.9538    1.6017 C.2       1 <0>         0.4468
     23 O5        -11.1439    7.6679    0.5393 O.2       1 <0>        -0.4759
     24 C18       -11.3733    8.8640    2.5564 C.3       1 <0>         0.1722
     25 H1        -11.2443    8.4999    3.5756 H         1 <0>         0.1238
     26 C19       -10.8051   10.2802    2.4450 C.3       1 <0>        -0.0559
     27 C20       -11.4477   11.1624    3.4841 C.2       1 <0>        -0.1652
     28 C21       -12.5097   11.9637    3.3051 C.2       1 <0>         0.0645
     29 N2        -12.8096   12.6091    4.4738 N.pl3     1 <0>        -0.5950
     30 H2        -13.5378   13.2389    4.5916 H         1 <0>         0.4160
     31 C22       -11.9201   12.2356    5.4563 C.ar      1 <0>         0.0957
     32 C23       -11.0279   11.3131    4.8795 C.ar      1 <0>        -0.1012
     33 C24       -10.0056   10.7573    5.6505 C.ar      1 <0>        -0.0709
     34 C25        -9.8764   11.1129    6.9637 C.ar      1 <0>        -0.1445
     35 C26       -10.7535   12.0228    7.5372 C.ar      1 <0>        -0.0977
     36 C27       -11.7698   12.5833    6.7946 C.ar      1 <0>        -0.1316
     37 N3        -12.7994    8.8822    2.2212 N.am      1 <0>        -0.7187
     38 C28       -13.2002    9.2990    1.0038 C.2       1 <0>         0.5154
     39 O6        -12.3804    9.6590    0.1858 O.2       1 <0>        -0.5165
     40 C29       -14.6671    9.3177    0.6590 C.3       1 <0>        -0.1715
     41 H3         -6.1259    2.1854   -2.1451 H         1 <0>         0.0754
     42 H4         -6.2395    3.7122   -3.0530 H         1 <0>         0.0861
     43 H5         -4.6518    3.1105   -2.5185 H         1 <0>         0.0660
     44 H6         -7.7972    4.8812   -1.2155 H         1 <0>         0.1544
     45 H7         -4.6326    1.3425    0.0322 H         1 <0>         0.1427
     46 H8         -2.4915    0.1376    0.0139 H         1 <0>         0.1502
     47 H9         -0.3962    3.8831    0.0350 H         1 <0>         0.1511
     48 H10        -2.5435    5.0770    0.0434 H         1 <0>         0.1416
     49 H11         2.3964    0.5025   -0.9082 H         1 <0>         0.0662
     50 H12         3.2268    1.8018   -0.0191 H         1 <0>         0.1063
     51 H13         2.4134    0.4929    0.8717 H         1 <0>         0.0664
     52 H14        -4.0151    5.9003    2.2246 H         1 <0>         0.0841
     53 H15        -5.3655    5.1943    3.1447 H         1 <0>         0.1029
     54 H16        -4.0229    4.1604    2.6001 H         1 <0>         0.0684
     55 H17        -8.6576    7.0890    0.1082 H         1 <0>         0.0912
     56 H18        -9.4286    5.7217    0.7795 H         1 <0>         0.1017
     57 H19        -9.7276   10.2532    2.6073 H         1 <0>         0.0898
     58 H20       -11.0131   10.6780    1.4517 H         1 <0>         0.0995
     59 H21       -13.0488   12.0803    2.3765 H         1 <0>         0.1645
     60 H22        -9.3192   10.0488    5.2108 H         1 <0>         0.1244
     61 H23        -9.0855   10.6823    7.5599 H         1 <0>         0.1228
     62 H24       -10.6384   12.2940    8.5763 H         1 <0>         0.1244
     63 H25       -12.4476   13.2899    7.2502 H         1 <0>         0.1185
     64 H26       -13.4551    8.5942    2.8755 H         1 <0>         0.4084
     65 H27       -15.0914   10.2848    0.9287 H         1 <0>         0.0912
     66 H28       -14.7909    9.1523   -0.4112 H         1 <0>         0.0941
     67 H29       -15.1800    8.5294    1.2102 H         1 <0>         0.0785
@<TRIPOS>BOND
     1    1    2 1
     2    1   41 1
     3    1   42 1
     4    1   43 1
     5    2    6 1
     6    2    3 2
     7    3    4 1
     8    3   44 1
     9    4    5 2
    10    4   18 1
    11    5    6 1
    12    5   17 1
    13    6    7 1
    14    7   12 ar
    15    7    8 ar
    16    8    9 ar
    17    8   45 1
    18    9   10 ar
    19    9   46 1
    20   10   11 ar
    21   10   13 1
    22   11   12 ar
    23   11   47 1
    24   12   48 1
    25   13   14 2
    26   13   15 1
    27   15   16 1
    28   16   49 1
    29   16   50 1
    30   16   51 1
    31   17   52 1
    32   17   53 1
    33   17   54 1
    34   18   19 2
    35   18   20 1
    36   20   21 1
    37   20   55 1
    38   20   56 1
    39   21   22 1
    40   22   23 2
    41   22   24 1
    42   24   25 1
    43   24   26 1
    44   24   37 1
    45   26   27 1
    46   26   57 1
    47   26   58 1
    48   27   32 1
    49   27   28 2
    50   28   29 1
    51   28   59 1
    52   29   30 1
    53   29   31 1
    54   31   36 ar
    55   31   32 ar
    56   32   33 ar
    57   33   34 ar
    58   33   60 1
    59   34   35 ar
    60   34   61 1
    61   35   36 ar
    62   35   62 1
    63   36   63 1
    64   37   38 am
    65   37   64 1
    66   38   39 2
    67   38   40 1
    68   40   65 1
    69   40   66 1
    70   40   67 1
@<TRIPOS>MOLECULE
ZINC20999062
   70    74     0     0     0
SMALL
USER_CHARGES
methyl 5-[(1,3-dimethylpyrazol-4-yl)methylamino]-1-phenethyl-3-[[(3S)-tetrahydrofuran-3-carbonyl]amino]pyrrolo[5,4-b]pyridine-2-carboxylate
@<TRIPOS>ATOM
      1 C1          3.1630   -5.2517   -5.8557 C.3       1 <0>        -0.0793
      2 C2          3.7507   -4.0940   -6.6208 C.2       1 <0>         0.0919
      3 C3          3.0370   -3.0131   -7.1488 C.2       1 <0>        -0.2579
      4 C4          3.9192   -2.1935   -7.7662 C.2       1 <0>         0.0795
      5 N1          5.1486   -2.7320   -7.6260 N.pl3     1 <0>        -0.3731
      6 N2          5.0165   -3.9265   -6.9062 N.2       1 <0>        -0.2964
      7 C5          6.3996   -2.1698   -8.1407 C.3       1 <0>         0.0951
      8 C6          1.5480   -2.8020   -7.0528 C.3       1 <0>         0.2081
      9 N3          1.2161   -2.2562   -5.7344 N.pl3     1 <0>        -0.7464
     10 C7         -0.1163   -1.9748   -5.4083 C.ar      1 <0>         0.1500
     11 C8         -0.4393   -1.4575   -4.1624 C.ar      1 <0>        -0.1055
     12 C9         -1.7850   -1.1888   -3.8909 C.ar      1 <0>        -0.1093
     13 C10        -2.4960   -0.6619   -2.7248 C.2       1 <0>         0.1611
     14 C11        -3.8339   -0.6333   -3.0610 C.2       1 <0>         0.0453
     15 N4         -3.9836   -1.1138   -4.3542 N.pl3     1 <0>        -0.4425
     16 C12        -2.7583   -1.4583   -4.8727 C.ar      1 <0>         0.2723
     17 N5         -2.3910   -1.9540   -6.0486 N.ar      1 <0>        -0.4596
     18 C13        -1.1323   -2.2109   -6.3312 C.ar      1 <0>         0.1029
     19 C14        -5.2602   -1.2365   -5.0623 C.3       1 <0>         0.1136
     20 C15        -5.5474    0.0589   -5.8242 C.3       1 <0>        -0.0903
     21 C16        -6.8606   -0.0674   -6.5526 C.ar      1 <0>        -0.0814
     22 C17        -6.8896   -0.5557   -7.8455 C.ar      1 <0>        -0.1121
     23 C18        -8.0947   -0.6757   -8.5121 C.ar      1 <0>        -0.1181
     24 C19        -9.2697   -0.2982   -7.8893 C.ar      1 <0>        -0.1211
     25 C20        -9.2401    0.1946   -6.5981 C.ar      1 <0>        -0.1196
     26 C21        -8.0355    0.3105   -5.9299 C.ar      1 <0>        -0.1114
     27 C22        -4.8852   -0.1856   -2.2214 C.2       1 <0>         0.5329
     28 O1         -4.6386    0.2168   -1.0998 O.2       1 <0>        -0.4834
     29 O2         -6.1592   -0.2059   -2.6661 O.3       1 <0>        -0.3504
     30 C23        -7.1677    0.2596   -1.7671 C.3       1 <0>         0.0291
     31 N6         -1.9328   -0.2628   -1.5172 N.am      1 <0>        -0.6658
     32 C24        -1.7107   -1.1694   -0.5449 C.2       1 <0>         0.5312
     33 O3         -2.0808   -2.3154   -0.6884 O.2       1 <0>        -0.5211
     34 C25        -1.0024   -0.7592    0.7204 C.3       1 <0>        -0.1461
     35 H1         -1.6410    0.0155    1.1699 H         1 <0>         0.1149
     36 C26        -0.7810   -1.9831    1.6421 C.3       1 <0>        -0.1450
     37 C27         0.6495   -1.7287    2.1818 C.3       1 <0>         0.0487
     38 O4          1.3406   -1.1597    1.0491 O.3       1 <0>        -0.3665
     39 C28         0.4216   -0.2619    0.4044 C.3       1 <0>         0.0590
     40 H2          2.0741   -5.1205   -5.7714 H         1 <0>         0.0800
     41 H3          3.6067   -5.2895   -4.8499 H         1 <0>         0.0770
     42 H4          3.3792   -6.1901   -6.3874 H         1 <0>         0.0763
     43 H5          3.6822   -1.2720   -8.2772 H         1 <0>         0.1753
     44 H6          7.2368   -2.8305   -7.8711 H         1 <0>         0.0969
     45 H7          6.5621   -1.1743   -7.7019 H         1 <0>         0.0823
     46 H8          6.3392   -2.0825   -9.2356 H         1 <0>         0.0821
     47 H9          1.2266   -2.0965   -7.8332 H         1 <0>         0.0638
     48 H10         1.0316   -3.7632   -7.1923 H         1 <0>         0.0666
     49 H11         2.0136   -2.0674   -5.0006 H         1 <0>         0.4213
     50 H12         0.3260   -1.2633   -3.4255 H         1 <0>         0.1315
     51 H13        -0.8808   -2.6137   -7.3012 H         1 <0>         0.1618
     52 H14        -5.2066   -2.0752   -5.7721 H         1 <0>         0.0987
     53 H15        -6.0658   -1.4213   -4.3365 H         1 <0>         0.1065
     54 H16        -5.6010    0.8976   -5.1144 H         1 <0>         0.0772
     55 H17        -4.7418    0.2437   -6.5500 H         1 <0>         0.0796
     56 H18        -5.9712   -0.8468   -8.3336 H         1 <0>         0.1234
     57 H19        -8.1179   -1.0610   -9.5207 H         1 <0>         0.1225
     58 H20       -10.2108   -0.3887   -8.4113 H         1 <0>         0.1213
     59 H21       -10.1580    0.4895   -6.1115 H         1 <0>         0.1217
     60 H22        -8.0123    0.6959   -4.9213 H         1 <0>         0.1215
     61 H23        -8.1523    0.1894   -2.2525 H         1 <0>         0.1062
     62 H24        -6.9649    1.3070   -1.4991 H         1 <0>         0.0648
     63 H25        -7.1622   -0.3592   -0.8577 H         1 <0>         0.0644
     64 H26        -1.6687    0.7927   -1.3557 H         1 <0>         0.4334
     65 H27        -1.5448   -1.9889    2.4337 H         1 <0>         0.0860
     66 H28        -0.8595   -2.9069    1.0501 H         1 <0>         0.0986
     67 H29         0.6018   -1.0355    3.0346 H         1 <0>         0.0659
     68 H30         1.0932   -2.6810    2.5078 H         1 <0>         0.0996
     69 H31         0.5780   -0.2654   -0.6844 H         1 <0>         0.0883
     70 H32         0.5467    0.7609    0.7895 H         1 <0>         0.0720
@<TRIPOS>BOND
     1    1    2 1
     2    1   40 1
     3    1   41 1
     4    1   42 1
     5    2    6 2
     6    2    3 1
     7    3    4 2
     8    3    8 1
     9    4    5 1
    10    4   43 1
    11    5    6 1
    12    5    7 1
    13    7   44 1
    14    7   45 1
    15    7   46 1
    16    8    9 1
    17    8   47 1
    18    8   48 1
    19    9   10 1
    20    9   49 1
    21   10   18 ar
    22   10   11 ar
    23   11   12 ar
    24   11   50 1
    25   12   16 ar
    26   12   13 1
    27   13   14 2
    28   13   31 1
    29   14   15 1
    30   14   27 1
    31   15   16 1
    32   15   19 1
    33   16   17 ar
    34   17   18 ar
    35   18   51 1
    36   19   20 1
    37   19   52 1
    38   19   53 1
    39   20   21 1
    40   20   54 1
    41   20   55 1
    42   21   26 ar
    43   21   22 ar
    44   22   23 ar
    45   22   56 1
    46   23   24 ar
    47   23   57 1
    48   24   25 ar
    49   24   58 1
    50   25   26 ar
    51   25   59 1
    52   26   60 1
    53   27   28 2
    54   27   29 1
    55   29   30 1
    56   30   61 1
    57   30   62 1
    58   30   63 1
    59   31   32 am
    60   31   64 1
    61   32   33 2
    62   32   34 1
    63   34   35 1
    64   34   39 1
    65   34   36 1
    66   36   37 1
    67   36   65 1
    68   36   66 1
    69   37   38 1
    70   37   67 1
    71   37   68 1
    72   38   39 1
    73   39   69 1
    74   39   70 1
@<TRIPOS>MOLECULE
ZINC36220429
   64    68     0     0     0
SMALL
USER_CHARGES

@<TRIPOS>ATOM
      1 C1          2.5379   -0.2373    1.0364 C.3       1 <0>        -0.1214
      2 C2          1.2354   -0.4737    0.3162 C.ar      1 <0>        -0.0750
      3 C3          1.2393   -0.9669   -0.9754 C.ar      1 <0>        -0.1153
      4 C4          0.0448   -1.1836   -1.6360 C.ar      1 <0>        -0.1155
      5 C5         -1.1541   -0.9077   -1.0050 C.ar      1 <0>        -0.1184
      6 C6         -1.1580   -0.4156    0.2865 C.ar      1 <0>        -0.1143
      7 C7          0.0368   -0.2028    0.9488 C.ar      1 <0>        -0.1102
      8 C8          0.0324    0.3288    2.3589 C.3       1 <0>         0.1913
      9 N1         -1.3434    0.3713    2.8605 N.am      1 <0>        -0.6040
     10 C9         -2.3200    1.4547    2.6324 C.3       1 <0>         0.0782
     11 H1         -2.3426    1.7417    1.5811 H         1 <0>         0.1321
     12 C10        -3.6521    0.7876    3.0500 C.3       1 <0>         0.1339
     13 H2         -4.2990    1.4985    3.5640 H         1 <0>         0.1422
     14 O1         -3.2022   -0.2431    3.9508 O.3       1 <0>        -0.3077
     15 C11        -1.9457   -0.5733    3.6073 C.2       1 <0>         0.6488
     16 O2         -1.4091   -1.6121    3.9379 O.2       1 <0>        -0.4994
     17 C12        -4.3530    0.1918    1.8563 C.ar      1 <0>        -0.1404
     18 C13        -4.0272   -1.0828    1.4303 C.ar      1 <0>        -0.0712
     19 C14        -4.6676   -1.6318    0.3368 C.ar      1 <0>        -0.1354
     20 C15        -5.6401   -0.9023   -0.3351 C.ar      1 <0>         0.1634
     21 C16        -5.9652    0.3775    0.0957 C.ar      1 <0>        -0.1175
     22 C17        -5.3244    0.9188    1.1929 C.ar      1 <0>        -0.0729
     23 N2         -6.2901   -1.4549   -1.4429 N.am      1 <0>        -0.6655
     24 C18        -6.6788   -0.6619   -2.4610 C.2       1 <0>         0.6091
     25 O3         -6.3815    0.5183   -2.4609 O.2       1 <0>        -0.4962
     26 C19        -7.4600   -1.2210   -3.5687 C.2       1 <0>        -0.0931
     27 C20        -7.9110   -0.5341   -4.6595 C.2       1 <0>        -0.1052
     28 C21        -8.6063   -1.4559   -5.4576 C.2       1 <0>        -0.2258
     29 C22        -8.5500   -2.6499   -4.8272 C.2       1 <0>         0.0059
     30 O4         -7.8541   -2.5054   -3.6919 O.3       1 <0>        -0.1655
     31 C23        -2.0145    2.6450    3.5047 C.2       1 <0>         0.5075
     32 O5         -1.3051    2.5159    4.4799 O.2       1 <0>        -0.5068
     33 N3         -2.5295    3.8529    3.2010 N.am      1 <0>        -0.7166
     34 C24        -2.2324    5.0100    4.0490 C.3       1 <0>         0.1736
     35 C25        -2.9237    6.2292    3.4953 C.ar      1 <0>         0.1009
     36 C26        -4.1581    6.6003    3.9946 C.ar      1 <0>        -0.1521
     37 C27        -4.7856    7.7235    3.4784 C.ar      1 <0>        -0.0746
     38 C28        -4.1452    8.4347    2.4748 C.ar      1 <0>        -0.1625
     39 C29        -2.9116    8.0032    2.0258 C.ar      1 <0>         0.1013
     40 N4         -2.3418    6.9327    2.5441 N.ar      1 <0>        -0.4689
     41 H3          2.7778   -1.1070    1.6481 H         1 <0>         0.0753
     42 H4          3.3320   -0.0756    0.3075 H         1 <0>         0.0695
     43 H5          2.4459    0.6415    1.6745 H         1 <0>         0.0679
     44 H6          2.1758   -1.1824   -1.4684 H         1 <0>         0.1239
     45 H7          0.0478   -1.5682   -2.6452 H         1 <0>         0.1213
     46 H8         -2.0875   -1.0765   -1.5214 H         1 <0>         0.1180
     47 H9         -2.0945   -0.1998    0.7793 H         1 <0>         0.1244
     48 H10         0.6310   -0.3233    2.9950 H         1 <0>         0.1083
     49 H11         0.4542    1.3338    2.3697 H         1 <0>         0.0981
     50 H12        -3.2710   -1.6495    1.9531 H         1 <0>         0.1276
     51 H13        -4.4123   -2.6270    0.0041 H         1 <0>         0.1336
     52 H14        -6.7209    0.9474   -0.4245 H         1 <0>         0.1423
     53 H15        -5.5796    1.9123    1.5308 H         1 <0>         0.1349
     54 H16        -6.4612   -2.4091   -1.4787 H         1 <0>         0.4189
     55 H17        -7.7621    0.5151   -4.8674 H         1 <0>         0.1633
     56 H18        -9.0944   -1.2498   -6.3987 H         1 <0>         0.1610
     57 H19        -8.9901   -3.5700   -5.1823 H         1 <0>         0.2145
     58 H20        -3.0968    3.9561    2.4210 H         1 <0>         0.4043
     59 H21        -2.5878    4.8192    5.0616 H         1 <0>         0.0895
     60 H22        -1.1559    5.1799    4.0678 H         1 <0>         0.0901
     61 H23        -4.6280    6.0224    4.7766 H         1 <0>         0.1386
     62 H24        -5.7505    8.0371    3.8488 H         1 <0>         0.1388
     63 H25        -4.6049    9.3144    2.0493 H         1 <0>         0.1389
     64 H26        -2.4064    8.5516    1.2445 H         1 <0>         0.1600
@<TRIPOS>BOND
     1    1    2 1
     2    1   41 1
     3    1   42 1
     4    1   43 1
     5    2    7 ar
     6    2    3 ar
     7    3    4 ar
     8    3   44 1
     9    4    5 ar
    10    4   45 1
    11    5    6 ar
    12    5   46 1
    13    6    7 ar
    14    6   47 1
    15    7    8 1
    16    8    9 1
    17    8   48 1
    18    8   49 1
    19    9   15 am
    20    9   10 1
    21   10   11 1
    22   10   12 1
    23   10   31 1
    24   12   13 1
    25   12   14 1
    26   12   17 1
    27   14   15 1
    28   15   16 2
    29   17   22 ar
    30   17   18 ar
    31   18   19 ar
    32   18   50 1
    33   19   20 ar
    34   19   51 1
    35   20   21 ar
    36   20   23 1
    37   21   22 ar
    38   21   52 1
    39   22   53 1
    40   23   24 am
    41   23   54 1
    42   24   25 2
    43   24   26 1
    44   26   30 1
    45   26   27 2
    46   27   28 1
    47   27   55 1
    48   28   29 2
    49   28   56 1
    50   29   30 1
    51   29   57 1
    52   31   32 2
    53   31   33 am
    54   33   34 1
    55   33   58 1
    56   34   35 1
    57   34   59 1
    58   34   60 1
    59   35   40 ar
    60   35   36 ar
    61   36   37 ar
    62   36   61 1
    63   37   38 ar
    64   37   62 1
    65   38   39 ar
    66   38   63 1
    67   39   40 ar
    68   39   64 1
@<TRIPOS>MOLECULE
ZINC38180204
   70    73     0     0     0
SMALL
USER_CHARGES

@<TRIPOS>ATOM
      1 C1          1.0399    1.4092    0.0302 C.3       1 <0>        -0.1150
      2 C2          0.7542   -0.0704    0.0161 C.ar      1 <0>        -0.1031
      3 C3          0.6727   -0.7477   -1.1890 C.ar      1 <0>        -0.0630
      4 C4          0.4116   -2.1027   -1.2177 C.ar      1 <0>        -0.1302
      5 C5          0.2268   -2.8033   -0.0306 C.ar      1 <0>         0.1713
      6 C6          0.3101   -2.1143    1.1860 C.ar      1 <0>        -0.1564
      7 C7          0.5795   -0.7504    1.2049 C.ar      1 <0>        -0.0558
      8 C8          0.0724   -3.1161    2.2513 C.2       1 <0>         0.0700
      9 N1          0.0578   -2.9159    3.5466 N.2       1 <0>        -0.1174
     10 N2          0.1483   -1.6137    4.0552 N.am      1 <0>        -0.5761
     11 C9          0.2534   -1.4150    5.3841 C.2       1 <0>         0.5303
     12 O1          0.2696   -2.3634    6.1394 O.2       1 <0>        -0.4861
     13 C10         0.3508   -0.0142    5.9312 C.3       1 <0>        -0.1201
     14 C11         0.4598   -0.0688    7.4563 C.3       1 <0>        -0.1217
     15 C12         0.5571    1.3320    8.0035 C.2       1 <0>         0.5349
     16 O2          0.5409    2.2803    7.2481 O.2       1 <0>        -0.4949
     17 N3          0.6622    1.5306    9.3324 N.am      1 <0>        -0.5726
     18 N4          0.7527    2.8329    9.8410 N.2       1 <0>        -0.1208
     19 C13         0.8549    3.0260   11.1334 C.2       1 <0>         0.0698
     20 C14         0.9541    4.3205   11.8472 C.ar      1 <0>        -0.0955
     21 C15         0.9709    5.6438   11.4210 C.ar      1 <0>        -0.0347
     22 C16         1.0765    6.6607   12.3488 C.ar      1 <0>        -0.1075
     23 C17         1.1653    6.3623   13.6982 C.ar      1 <0>        -0.0657
     24 C18         1.1494    5.0518   14.1309 C.ar      1 <0>        -0.1323
     25 C19         1.0436    4.0142   13.2111 C.ar      1 <0>         0.1572
     26 N5          1.0062    2.6339   13.3761 N.am      1 <0>        -0.5333
     27 C20         0.8899    2.0009   12.1963 C.2       1 <0>         0.5434
     28 O3          0.8281    0.7968   12.0325 O.2       1 <0>        -0.4965
     29 C21         1.0774    1.9558   14.6727 C.3       1 <0>         0.1380
     30 C22        -0.1903    1.1256   14.8844 C.3       1 <0>        -0.1707
     31 C23         2.2998    1.0362   14.7009 C.3       1 <0>        -0.1703
     32 C24         1.0957    8.0969   11.8927 C.3       1 <0>        -0.1132
     33 C25        -0.1447   -4.3897    1.5352 C.2       1 <0>         0.5896
     34 O4         -0.3747   -5.4693    2.0474 O.2       1 <0>        -0.4622
     35 N6         -0.0431   -4.1446    0.2178 N.am      1 <0>        -0.5387
     36 C26        -0.1975   -5.1620   -0.8250 C.3       1 <0>         0.1421
     37 C27         0.8566   -6.2540   -0.6322 C.3       1 <0>        -0.1721
     38 C28        -1.5943   -5.7794   -0.7321 C.3       1 <0>        -0.1721
     39 H1          2.1171    1.5708    0.0701 H         1 <0>         0.0747
     40 H2          0.6373    1.8656   -0.8741 H         1 <0>         0.0723
     41 H3          0.5720    1.8613    0.9047 H         1 <0>         0.0692
     42 H4          0.8144   -0.2105   -2.1151 H         1 <0>         0.1385
     43 H5          0.3505   -2.6198   -2.1638 H         1 <0>         0.1348
     44 H6          0.6472   -0.2240    2.1455 H         1 <0>         0.1213
     45 H7          0.1353   -0.8550    3.4509 H         1 <0>         0.3943
     46 H8          1.2340    0.4754    5.5211 H         1 <0>         0.1143
     47 H9         -0.5398    0.5482    5.6505 H         1 <0>         0.1150
     48 H10        -0.4235   -0.5585    7.8664 H         1 <0>         0.1156
     49 H11         1.3503   -0.6312    7.7370 H         1 <0>         0.1152
     50 H12         0.6752    0.7719    9.9366 H         1 <0>         0.4115
     51 H13         0.9020    5.8753   10.3684 H         1 <0>         0.1379
     52 H14         1.2480    7.1626   14.4186 H         1 <0>         0.1367
     53 H15         1.2196    4.8318   15.1859 H         1 <0>         0.1329
     54 H16         1.1625    2.6978   15.4666 H         1 <0>         0.1006
     55 H17        -0.2755    0.3836   14.0905 H         1 <0>         0.0731
     56 H18        -0.1373    0.6211   15.8491 H         1 <0>         0.0778
     57 H19        -1.0612    1.7808   14.8643 H         1 <0>         0.0613
     58 H20         3.2029    1.6276   14.5501 H         1 <0>         0.0614
     59 H21         2.3528    0.5316   15.6656 H         1 <0>         0.0778
     60 H22         2.2147    0.2942   13.9070 H         1 <0>         0.0727
     61 H23         0.0762    8.4808   11.8580 H         1 <0>         0.0732
     62 H24         1.6845    8.6920   12.5907 H         1 <0>         0.0697
     63 H25         1.5404    8.1566   10.8993 H         1 <0>         0.0696
     64 H26        -0.0684   -4.7011   -1.8042 H         1 <0>         0.1010
     65 H27         0.7274   -6.7149    0.3471 H         1 <0>         0.0747
     66 H28         0.7417   -7.0110   -1.4081 H         1 <0>         0.0783
     67 H29         1.8517   -5.8141   -0.6983 H         1 <0>         0.0617
     68 H30        -2.3453   -5.0015   -0.8695 H         1 <0>         0.0615
     69 H31        -1.7093   -6.5364   -1.5080 H         1 <0>         0.0783
     70 H32        -1.7235   -6.2403    0.2471 H         1 <0>         0.0747
@<TRIPOS>BOND
     1    1    2 1
     2    1   39 1
     3    1   40 1
     4    1   41 1
     5    2    7 ar
     6    2    3 ar
     7    3    4 ar
     8    3   42 1
     9    4    5 ar
    10    4   43 1
    11    5   35 1
    12    5    6 ar
    13    6    7 ar
    14    6    8 1
    15    7   44 1
    16    8    9 2
    17    8   33 1
    18    9   10 1
    19   10   11 am
    20   10   45 1
    21   11   12 2
    22   11   13 1
    23   13   14 1
    24   13   46 1
    25   13   47 1
    26   14   15 1
    27   14   48 1
    28   14   49 1
    29   15   16 2
    30   15   17 am
    31   17   18 1
    32   17   50 1
    33   18   19 2
    34   19   27 1
    35   19   20 1
    36   20   25 ar
    37   20   21 ar
    38   21   22 ar
    39   21   51 1
    40   22   23 ar
    41   22   32 1
    42   23   24 ar
    43   23   52 1
    44   24   25 ar
    45   24   53 1
    46   25   26 1
    47   26   27 am
    48   26   29 1
    49   27   28 2
    50   29   30 1
    51   29   31 1
    52   29   54 1
    53   30   55 1
    54   30   56 1
    55   30   57 1
    56   31   58 1
    57   31   59 1
    58   31   60 1
    59   32   61 1
    60   32   62 1
    61   32   63 1
    62   33   34 2
    63   33   35 am
    64   35   36 1
    65   36   37 1
    66   36   38 1
    67   36   64 1
    68   37   65 1
    69   37   66 1
    70   37   67 1
    71   38   68 1
    72   38   69 1
    73   38   70 1
@<TRIPOS>MOLECULE
ZINC09780690
   55    59     0     0     0
SMALL
USER_CHARGES
2-[[4-cyclopropyl-5-(2-fluorophenyl)-1,2,4-triazol-3-yl]sulfanyl]-N-(4-methyl-2,5-dioxo-4-phenyl-imidazolidin-1-yl)-acetamide
@<TRIPOS>ATOM
      1 C1         -0.3826   -1.2005    1.4568 C.3       1 <0>        -0.1455
      2 C2          0.2262   -0.6427    0.1687 C.3       1 <0>         0.1816
      3 C3          1.7267   -0.8573    0.1514 C.2       1 <0>         0.5378
      4 O1          2.3152   -1.9169    0.1784 O.2       1 <0>        -0.4417
      5 N1          2.2704    0.3747    0.1007 N.am      1 <0>        -0.3744
      6 C4          1.3318    1.3280    0.0837 C.2       1 <0>         0.7100
      7 O2          1.5776    2.5175    0.0396 O.2       1 <0>        -0.5182
      8 N2          0.0855    0.8229    0.1212 N.am      1 <0>        -0.7086
      9 N3          3.6483    0.6263    0.0700 N.am      1 <0>        -0.4982
     10 C5          4.2386    1.0058   -1.0806 C.2       1 <0>         0.5446
     11 O3          3.5769    1.1296   -2.0895 O.2       1 <0>        -0.4956
     12 C6          5.7207    1.2764   -1.1136 C.3       1 <0>        -0.1608
     13 S1          6.2081    1.7627   -2.7875 S.3       1 <0>         0.1097
     14 C7          7.9355    2.0105   -2.5434 C.2       1 <0>         0.1407
     15 N4          8.5933    1.8573   -1.4161 N.2       1 <0>        -0.2846
     16 N5          9.8389    2.1196   -1.5928 N.2       1 <0>        -0.2530
     17 C8         10.0530    2.4564   -2.8434 C.2       1 <0>         0.2296
     18 N6          8.8413    2.3920   -3.4920 N.pl3     1 <0>        -0.4235
     19 C9          8.5774    2.6755   -4.9048 C.3       1 <0>         0.0421
     20 C10         7.1248    2.9244   -5.3160 C.3       1 <0>        -0.1701
     21 C11         7.8184    1.6173   -5.7079 C.3       1 <0>        -0.1692
     22 C12        11.3518    2.8285   -3.4430 C.ar      1 <0>        -0.0583
     23 C13        11.7495    2.2679   -4.6578 C.ar      1 <0>        -0.0690
     24 C14        12.9628    2.6192   -5.2122 C.ar      1 <0>        -0.1283
     25 C15        13.7861    3.5258   -4.5677 C.ar      1 <0>        -0.0708
     26 C16        13.4001    4.0863   -3.3638 C.ar      1 <0>        -0.1530
     27 C17        12.1848    3.7476   -2.7992 C.ar      1 <0>         0.1438
     28 F1         11.8054    4.2999   -1.6260 F         1 <0>        -0.1215
     29 C18        -0.4172   -1.2765   -1.0377 C.ar      1 <0>        -0.1026
     30 C19         0.0997   -2.4463   -1.5623 C.ar      1 <0>        -0.1061
     31 C20        -0.4932   -3.0300   -2.6662 C.ar      1 <0>        -0.1130
     32 C21        -1.5974   -2.4389   -3.2511 C.ar      1 <0>        -0.1063
     33 C22        -2.1112   -1.2663   -2.7297 C.ar      1 <0>        -0.1165
     34 C23        -1.5210   -0.6849   -1.6232 C.ar      1 <0>        -0.0940
     35 H1         -1.4443   -0.9565    1.4922 H         1 <0>         0.0888
     36 H2         -0.2576   -2.2830    1.4787 H         1 <0>         0.0906
     37 H3          0.1205   -0.7591    2.3172 H         1 <0>         0.0752
     38 H4         -0.7440    1.3256    0.1141 H         1 <0>         0.4453
     39 H5          4.1774    0.5272    0.8769 H         1 <0>         0.4330
     40 H6          5.9588    2.0808   -0.4177 H         1 <0>         0.1381
     41 H7          6.2611    0.3747   -0.8253 H         1 <0>         0.1371
     42 H8          9.3512    3.2416   -5.4233 H         1 <0>         0.1545
     43 H9          6.3656    2.8771   -4.5353 H         1 <0>         0.1162
     44 H10         6.9431    3.6539   -6.1052 H         1 <0>         0.1257
     45 H11         8.0926    1.4874   -6.7548 H         1 <0>         0.1211
     46 H12         7.5158    0.7099   -5.1852 H         1 <0>         0.1107
     47 H13        11.1087    1.5601   -5.1625 H         1 <0>         0.1350
     48 H14        13.2710    2.1856   -6.1521 H         1 <0>         0.1389
     49 H15        14.7349    3.7968   -5.0070 H         1 <0>         0.1406
     50 H16        14.0474    4.7932   -2.8662 H         1 <0>         0.1455
     51 H17         0.9647   -2.9060   -1.1075 H         1 <0>         0.1378
     52 H18        -0.0920   -3.9463   -3.0734 H         1 <0>         0.1289
     53 H19        -2.0590   -2.8935   -4.1153 H         1 <0>         0.1275
     54 H20        -2.9740   -0.8045   -3.1867 H         1 <0>         0.1291
     55 H21        -1.9224    0.2312   -1.2158 H         1 <0>         0.1233
@<TRIPOS>BOND
     1    1    2 1
     2    1   35 1
     3    1   36 1
     4    1   37 1
     5    2    8 1
     6    2    3 1
     7    2   29 1
     8    3    4 2
     9    3    5 am
    10    5    6 am
    11    5    9 1
    12    6    7 2
    13    6    8 am
    14    8   38 1
    15    9   10 am
    16    9   39 1
    17   10   11 2
    18   10   12 1
    19   12   13 1
    20   12   40 1
    21   12   41 1
    22   13   14 1
    23   14   18 1
    24   14   15 2
    25   15   16 1
    26   16   17 2
    27   17   18 1
    28   17   22 1
    29   18   19 1
    30   19   21 1
    31   19   20 1
    32   19   42 1
    33   20   21 1
    34   20   43 1
    35   20   44 1
    36   21   45 1
    37   21   46 1
    38   22   27 ar
    39   22   23 ar
    40   23   24 ar
    41   23   47 1
    42   24   25 ar
    43   24   48 1
    44   25   26 ar
    45   25   49 1
    46   26   27 ar
    47   26   50 1
    48   27   28 1
    49   29   34 ar
    50   29   30 ar
    51   30   31 ar
    52   30   51 1
    53   31   32 ar
    54   31   52 1
    55   32   33 ar
    56   32   53 1
    57   33   34 ar
    58   33   54 1
    59   34   55 1
@<TRIPOS>MOLECULE
ZINC13098552
   57    60     0     0     0
SMALL
USER_CHARGES
[(1R)-2-(ethylcarbamoylamino)-1-methyl-2-oxo-ethyl] 3-methyl-1-phenyl-6-(2-thienyl)pyrazolo[5,4-b]pyridine-4-carboxylate
@<TRIPOS>ATOM
      1 C1         12.8417    5.6097    3.1012 C.3       1 <0>        -0.1660
      2 C2         11.3907    5.1287    3.1666 C.3       1 <0>         0.1284
      3 N1         10.6162    5.7666    2.0991 N.am      1 <0>        -0.7362
      4 C3          9.3041    5.4911    1.9616 C.2       1 <0>         0.6940
      5 O1          8.7634    4.7135    2.7233 O.2       1 <0>        -0.5249
      6 N2          8.5916    6.0780    0.9796 N.am      1 <0>        -0.6868
      7 C4          7.2795    5.8025    0.8421 C.2       1 <0>         0.5198
      8 O2          6.7401    5.0268    1.6018 O.2       1 <0>        -0.4359
      9 C5          6.4828    6.4587   -0.2560 C.3       1 <0>         0.0740
     10 H1          6.5855    7.5413   -0.1822 H         1 <0>         0.1225
     11 C6          7.0043    5.9884   -1.6153 C.3       1 <0>        -0.1701
     12 O3          5.0835    6.0950   -0.1223 O.3       1 <0>        -0.3158
     13 C7          4.1747    6.9920   -0.5518 C.2       1 <0>         0.5151
     14 O4          4.5412    8.0489   -1.0250 O.2       1 <0>        -0.4726
     15 C8          2.7320    6.6901   -0.4472 C.ar      1 <0>         0.0170
     16 C9          2.2494    5.4088   -0.6857 C.ar      1 <0>        -0.1400
     17 C10         0.8745    5.1639   -0.5766 C.ar      1 <0>         0.2870
     18 N3          0.0254    6.1296   -0.2562 N.ar      1 <0>        -0.4664
     19 C11         0.4319    7.3658   -0.0133 C.ar      1 <0>         0.3297
     20 C12         1.7995    7.6971   -0.1015 C.ar      1 <0>        -0.1775
     21 C13         1.9150    9.0696    0.2024 C.2       1 <0>         0.1227
     22 N4          0.7270    9.5423    0.4552 N.2       1 <0>        -0.2244
     23 N5         -0.2240    8.5223    0.3337 N.pl3     1 <0>        -0.3337
     24 C14        -1.6037    8.6569    0.5318 C.ar      1 <0>         0.1559
     25 C15        -2.4929    7.9277   -0.2468 C.ar      1 <0>        -0.1135
     26 C16        -3.8529    8.0581   -0.0447 C.ar      1 <0>        -0.0990
     27 C17        -4.3298    8.9230    0.9232 C.ar      1 <0>        -0.1191
     28 C18        -3.4471    9.6549    1.6962 C.ar      1 <0>        -0.1019
     29 C19        -2.0858    9.5244    1.5033 C.ar      1 <0>        -0.1117
     30 C20         3.1987    9.8586    0.2295 C.3       1 <0>        -0.0733
     31 C21         0.3604    3.8039   -0.8296 C.2       1 <0>        -0.1430
     32 C22        -0.9305    3.3453   -0.7796 C.2       1 <0>        -0.0929
     33 C23        -1.1731    2.0206   -1.0626 C.2       1 <0>        -0.1672
     34 C24        -0.1292    1.2075   -1.3721 C.2       1 <0>        -0.1529
     35 S1          1.2577    2.3277   -1.2803 S.3       1 <0>         0.0924
     36 H2         13.2691    5.3447    2.1342 H         1 <0>         0.0633
     37 H3         12.8717    6.6919    3.2275 H         1 <0>         0.0632
     38 H4         13.4179    5.1351    3.8955 H         1 <0>         0.0788
     39 H5         10.9633    5.3937    4.1336 H         1 <0>         0.0710
     40 H6         11.3607    4.0465    3.0403 H         1 <0>         0.0713
     41 H7         11.0478    6.3872    1.4912 H         1 <0>         0.3996
     42 H8          9.0232    6.6986    0.3717 H         1 <0>         0.4112
     43 H9          6.4281    6.4630   -2.4095 H         1 <0>         0.0843
     44 H10         8.0548    6.2613   -1.7157 H         1 <0>         0.0860
     45 H11         6.9016    4.9057   -1.6891 H         1 <0>         0.0799
     46 H12         2.9268    4.6109   -0.9519 H         1 <0>         0.1583
     47 H13        -2.1212    7.2559   -1.0064 H         1 <0>         0.1336
     48 H14        -4.5449    7.4874   -0.6463 H         1 <0>         0.1334
     49 H15        -5.3939    9.0269    1.0760 H         1 <0>         0.1302
     50 H16        -3.8227   10.3295    2.4513 H         1 <0>         0.1333
     51 H17        -1.3970   10.0960    2.1075 H         1 <0>         0.1328
     52 H18         3.4430   10.1897   -0.7799 H         1 <0>         0.0968
     53 H19         3.0780   10.7268    0.8774 H         1 <0>         0.0797
     54 H20         4.0035    9.2300    0.6105 H         1 <0>         0.0808
     55 H21        -1.7420    4.0117   -0.5270 H         1 <0>         0.1442
     56 H22        -2.1803    1.6315   -1.0364 H         1 <0>         0.1416
     57 H23        -0.1372    0.1553   -1.6155 H         1 <0>         0.1932
@<TRIPOS>BOND
     1    1    2 1
     2    1   36 1
     3    1   37 1
     4    1   38 1
     5    2    3 1
     6    2   39 1
     7    2   40 1
     8    3    4 am
     9    3   41 1
    10    4    5 2
    11    4    6 am
    12    6    7 am
    13    6   42 1
    14    7    8 2
    15    7    9 1
    16    9   10 1
    17    9   11 1
    18    9   12 1
    19   11   43 1
    20   11   44 1
    21   11   45 1
    22   12   13 1
    23   13   14 2
    24   13   15 1
    25   15   20 ar
    26   15   16 ar
    27   16   17 ar
    28   16   46 1
    29   17   18 ar
    30   17   31 1
    31   18   19 ar
    32   19   23 1
    33   19   20 ar
    34   20   21 1
    35   21   22 2
    36   21   30 1
    37   22   23 1
    38   23   24 1
    39   24   29 ar
    40   24   25 ar
    41   25   26 ar
    42   25   47 1
    43   26   27 ar
    44   26   48 1
    45   27   28 ar
    46   27   49 1
    47   28   29 ar
    48   28   50 1
    49   29   51 1
    50   30   52 1
    51   30   53 1
    52   30   54 1
    53   31   35 1
    54   31   32 2
    55   32   33 1
    56   32   55 1
    57   33   34 2
    58   33   56 1
    59   34   35 1
    60   34   57 1
@<TRIPOS>MOLECULE
ZINC20583271
   65    68     0     0     0
SMALL
USER_CHARGES
butyl (3S)-2'-amino-1'-(2-methoxy-2-oxo-ethyl)-6,6-dimethyl-2,4-dioxo-spiro[5,7-dihydrobenzofuran-3,4'-quinoline]-3'-carboxylate
@<TRIPOS>ATOM
      1 C1         -1.4019    8.5984    7.6856 C.3       1 <0>        -0.1527
      2 C2         -0.4975    7.9477    6.6371 C.3       1 <0>        -0.1219
      3 C3         -1.2331    6.7745    5.9864 C.3       1 <0>        -0.1191
      4 C4         -0.3287    6.1238    4.9378 C.3       1 <0>         0.0678
      5 O1         -1.0158    5.0281    4.3301 O.3       1 <0>        -0.3528
      6 C5         -0.3513    4.3411    3.3752 C.2       1 <0>         0.5412
      7 O2          0.7823    4.6660    3.0683 O.2       1 <0>        -0.5585
      8 C6         -0.9651    3.2559    2.7384 C.2       1 <0>        -0.3920
      9 C7         -0.3274    2.6531    1.6815 C.2       1 <0>         0.5778
     10 N1         -0.8983    1.5876    1.0379 N.pl3     1 <0>        -0.5264
     11 C8         -1.9224    0.8614    1.6520 C.ar      1 <0>         0.1998
     12 C9         -2.2390   -0.4099    1.1889 C.ar      1 <0>        -0.1581
     13 C10        -3.2471   -1.1338    1.7937 C.ar      1 <0>        -0.0789
     14 C11        -3.9416   -0.5920    2.8601 C.ar      1 <0>        -0.1330
     15 C12        -3.6299    0.6725    3.3215 C.ar      1 <0>        -0.0824
     16 C13        -2.6217    1.4052    2.7205 C.ar      1 <0>        -0.0832
     17 C14        -2.2976    2.7798    3.2300 C.3       1 <0>         0.0824
     18 C15        -3.3819    3.7526    2.8653 C.2       1 <0>        -0.2882
     19 C16        -3.9040    4.2039    4.0347 C.2       1 <0>         0.1572
     20 C17        -5.0394    5.2082    4.0568 C.3       1 <0>        -0.0540
     21 C18        -5.8454    5.0470    2.7633 C.3       1 <0>        -0.0528
     22 C19        -4.9329    5.2034    1.5459 C.3       1 <0>        -0.1564
     23 C20        -3.8299    4.1686    1.6001 C.2       1 <0>         0.4027
     24 O3         -3.3478    3.7123    0.5830 O.2       1 <0>        -0.4049
     25 C21        -6.4903    3.6598    2.7379 C.3       1 <0>        -0.1554
     26 C22        -6.9397    6.1152    2.7121 C.3       1 <0>        -0.1431
     27 O4         -3.2973    3.6530    5.0905 O.3       1 <0>        -0.2659
     28 C23        -2.3259    2.7884    4.7465 C.2       1 <0>         0.5093
     29 O5         -1.6215    2.1498    5.4920 O.2       1 <0>        -0.4095
     30 C24        -0.4299    1.2040   -0.2961 C.3       1 <0>         0.1112
     31 C25        -1.2332    1.9357   -1.3403 C.2       1 <0>         0.4110
     32 O6         -2.1074    2.6993   -1.0046 O.2       1 <0>        -0.4289
     33 O7         -0.9777    1.7392   -2.6433 O.3       1 <0>        -0.3641
     34 C26        -1.7907    2.4774   -3.5932 C.3       1 <0>         0.0372
     35 N2          0.8902    3.1245    1.2634 N.pl3     1 <0>        -0.8474
     36 H1         -0.8730    9.4419    8.1534 H         1 <0>         0.0575
     37 H2         -1.6632    7.8572    8.4552 H         1 <0>         0.0567
     38 H3         -2.3198    8.9640    7.2020 H         1 <0>         0.0559
     39 H4         -0.2362    8.6889    5.8675 H         1 <0>         0.0649
     40 H5          0.4204    7.5821    7.1207 H         1 <0>         0.0655
     41 H6         -1.4943    6.0333    6.7560 H         1 <0>         0.0749
     42 H7         -2.1510    7.1400    5.5029 H         1 <0>         0.0720
     43 H8         -0.0675    6.8650    4.1682 H         1 <0>         0.0664
     44 H9          0.5892    5.7582    5.4213 H         1 <0>         0.0664
     45 H10        -1.6963   -0.8318    0.3560 H         1 <0>         0.1304
     46 H11        -3.4933   -2.1220    1.4343 H         1 <0>         0.1337
     47 H12        -4.7294   -1.1590    3.3336 H         1 <0>         0.1307
     48 H13        -4.1757    1.0908    4.1542 H         1 <0>         0.1204
     49 H14        -5.6816    5.0165    4.9291 H         1 <0>         0.1027
     50 H15        -4.6274    6.2261    4.1215 H         1 <0>         0.1086
     51 H16        -5.5205    5.0627    0.6267 H         1 <0>         0.0963
     52 H17        -4.4894    6.2100    1.5470 H         1 <0>         0.0970
     53 H18        -7.0695    3.5417    1.8102 H         1 <0>         0.0641
     54 H19        -7.1592    3.5505    3.6043 H         1 <0>         0.0640
     55 H20        -5.7058    2.8899    2.7809 H         1 <0>         0.0594
     56 H21        -7.5198    6.0016    1.7844 H         1 <0>         0.0654
     57 H22        -6.4788    7.1137    2.7365 H         1 <0>         0.0618
     58 H23        -7.6072    5.9982    3.5786 H         1 <0>         0.0643
     59 H24         0.6332    1.4664   -0.4009 H         1 <0>         0.1241
     60 H25        -0.5549    0.1195   -0.4308 H         1 <0>         0.1382
     61 H26        -1.4785    2.2247   -4.6172 H         1 <0>         0.1034
     62 H27        -1.6607    3.5568   -3.4261 H         1 <0>         0.0632
     63 H28        -2.8488    2.2099   -3.4559 H         1 <0>         0.0644
     64 H29         1.4046    2.6451    0.4175 H         1 <0>         0.4033
     65 H30         1.3527    3.9822    1.7738 H         1 <0>         0.4564
@<TRIPOS>BOND
     1    1    2 1
     2    1   36 1
     3    1   37 1
     4    1   38 1
     5    2    3 1
     6    2   39 1
     7    2   40 1
     8    3    4 1
     9    3   41 1
    10    3   42 1
    11    4    5 1
    12    4   43 1
    13    4   44 1
    14    5    6 1
    15    6    7 2
    16    6    8 1
    17    8   17 1
    18    8    9 2
    19    9   10 1
    20    9   35 1
    21   10   11 1
    22   10   30 1
    23   11   16 ar
    24   11   12 ar
    25   12   13 ar
    26   12   45 1
    27   13   14 ar
    28   13   46 1
    29   14   15 ar
    30   14   47 1
    31   15   16 ar
    32   15   48 1
    33   16   17 1
    34   17   28 1
    35   17   18 1
    36   18   23 1
    37   18   19 2
    38   19   20 1
    39   19   27 1
    40   20   21 1
    41   20   49 1
    42   20   50 1
    43   21   22 1
    44   21   25 1
    45   21   26 1
    46   22   23 1
    47   22   51 1
    48   22   52 1
    49   23   24 2
    50   25   53 1
    51   25   54 1
    52   25   55 1
    53   26   56 1
    54   26   57 1
    55   26   58 1
    56   27   28 1
    57   28   29 2
    58   30   31 1
    59   30   59 1
    60   30   60 1
    61   31   32 2
    62   31   33 1
    63   33   34 1
    64   34   61 1
    65   34   62 1
    66   34   63 1
    67   35   64 1
    68   35   65 1
@<TRIPOS>MOLECULE
ZINC33141377
   65    69     0     0     0
SMALL
USER_CHARGES
(3R)-1-[6-[2-(indan-5-ylamino)-2-oxo-ethyl]-7-oxo-thiazolo[4,5-d]pyrimidin-2-yl]-N-propyl-piperidine-3-carboxamide
@<TRIPOS>ATOM
      1 C1          0.7943  -11.4501   -6.1171 C.3       1 <0>        -0.1524
      2 C2          0.6154  -10.7688   -4.7590 C.3       1 <0>        -0.1361
      3 C3         -0.4673  -11.4982   -3.9611 C.3       1 <0>         0.1190
      4 N1         -0.6386  -10.8458   -2.6606 N.am      1 <0>        -0.7404
      5 C4         -1.5452  -11.3197   -1.7832 C.2       1 <0>         0.5207
      6 O1         -2.2192  -12.2862   -2.0702 O.2       1 <0>        -0.5374
      7 C5         -1.7214  -10.6486   -0.4454 C.3       1 <0>        -0.1068
      8 H1         -0.7648  -10.6918    0.0960 H         1 <0>         0.1116
      9 C6         -2.8083  -11.3750    0.3517 C.3       1 <0>        -0.1075
     10 C7         -3.0230  -10.6513    1.6839 C.3       1 <0>        -0.1178
     11 C8         -3.4020   -9.1938    1.4117 C.3       1 <0>         0.0472
     12 N2         -2.3304   -8.5426    0.6475 N.pl3     1 <0>        -0.4234
     13 C9         -2.1381   -9.1911   -0.6559 C.3       1 <0>         0.0718
     14 C10        -2.5795   -7.1959    0.4969 C.2       1 <0>         0.3111
     15 N3         -2.6544   -6.4946   -0.6163 N.2       1 <0>        -0.5542
     16 C11        -2.9047   -5.1849   -0.6203 C.2       1 <0>         0.3779
     17 C12        -3.0820   -4.6114    0.6525 C.2       1 <0>        -0.3791
     18 S1         -2.8726   -6.0056    1.7279 S.3       1 <0>         0.2028
     19 C13        -3.3485   -3.2582    0.8098 C.2       1 <0>         0.5951
     20 O2         -3.5008   -2.7725    1.9188 O.2       1 <0>        -0.5203
     21 N4         -3.4349   -2.4926   -0.3058 N.am      1 <0>        -0.5218
     22 C14        -3.2650   -3.0709   -1.5224 C.2       1 <0>         0.4069
     23 N5         -3.0105   -4.3319   -1.6802 N.2       1 <0>        -0.4977
     24 C15        -3.7146   -1.0584   -0.2000 C.3       1 <0>         0.0789
     25 C16        -2.4169   -0.3004   -0.0890 C.2       1 <0>         0.5008
     26 O3         -1.3621   -0.8992   -0.0974 O.2       1 <0>        -0.5070
     27 N6         -2.4282    1.0429    0.0196 N.am      1 <0>        -0.6792
     28 C17        -1.2242    1.7557    0.0116 C.ar      1 <0>         0.1489
     29 C18        -0.1512    1.3024   -0.7448 C.ar      1 <0>        -0.1206
     30 C19         1.0320    2.0120   -0.7532 C.ar      1 <0>        -0.0882
     31 C20         1.1570    3.1721   -0.0059 C.ar      1 <0>        -0.1117
     32 C21         0.0922    3.6231    0.7524 C.ar      1 <0>        -0.0806
     33 C22        -1.0962    2.9143    0.7640 C.ar      1 <0>        -0.1319
     34 C23         0.4788    4.8992    1.4693 C.3       1 <0>        -0.0866
     35 C24         1.7324    5.4136    0.7305 C.3       1 <0>        -0.1164
     36 C25         2.3313    4.1149    0.1501 C.3       1 <0>        -0.0792
     37 H2          1.5727  -10.9256   -6.6907 H         1 <0>         0.0612
     38 H3         -0.1550  -11.4169   -6.6718 H         1 <0>         0.0583
     39 H4          1.0938  -12.4976   -5.9652 H         1 <0>         0.0580
     40 H5          1.5647  -10.8020   -4.2043 H         1 <0>         0.0692
     41 H6          0.3159   -9.7213   -4.9109 H         1 <0>         0.0703
     42 H7         -1.4166  -11.4650   -4.5158 H         1 <0>         0.0664
     43 H8         -0.1679  -12.5457   -3.8092 H         1 <0>         0.0664
     44 H9         -0.0273   -9.9692   -2.4003 H         1 <0>         0.4220
     45 H10        -3.7459  -11.3761   -0.2235 H         1 <0>         0.0750
     46 H11        -2.4931  -12.4117    0.5410 H         1 <0>         0.0825
     47 H12        -3.8322  -11.1442    2.2427 H         1 <0>         0.0900
     48 H13        -2.0954  -10.6867    2.2741 H         1 <0>         0.0824
     49 H14        -4.3370   -9.1600    0.8332 H         1 <0>         0.0653
     50 H15        -3.5427   -8.6670    2.3670 H         1 <0>         0.0948
     51 H16        -1.3526   -8.6624   -1.2157 H         1 <0>         0.0992
     52 H17        -3.0793   -9.1572   -1.2242 H         1 <0>         0.0694
     53 H18        -3.3409   -2.4485   -2.4018 H         1 <0>         0.2127
     54 H19        -4.2591   -0.7240   -1.0954 H         1 <0>         0.1380
     55 H20        -4.3273   -0.8693    0.6937 H         1 <0>         0.1383
     56 H21        -3.3840    1.5790    0.1145 H         1 <0>         0.4379
     57 H22        -0.2443    0.3986   -1.3288 H         1 <0>         0.1333
     58 H23         1.8648    1.6614   -1.3448 H         1 <0>         0.1236
     59 H24        -1.9280    3.2669    1.3559 H         1 <0>         0.1241
     60 H25        -0.3504    5.6194    1.4088 H         1 <0>         0.0756
     61 H26         0.6943    4.6760    2.5247 H         1 <0>         0.0808
     62 H27         1.4311    6.1306   -0.0474 H         1 <0>         0.0740
     63 H28         2.4025    5.9105    1.4475 H         1 <0>         0.0780
     64 H29         3.0705    3.6701    0.8325 H         1 <0>         0.0809
     65 H30         2.7961    4.2874   -0.8319 H         1 <0>         0.0759
@<TRIPOS>BOND
     1    1    2 1
     2    1   37 1
     3    1   38 1
     4    1   39 1
     5    2    3 1
     6    2   40 1
     7    2   41 1
     8    3    4 1
     9    3   42 1
    10    3   43 1
    11    4    5 am
    12    4   44 1
    13    5    6 2
    14    5    7 1
    15    7    8 1
    16    7   13 1
    17    7    9 1
    18    9   10 1
    19    9   45 1
    20    9   46 1
    21   10   11 1
    22   10   47 1
    23   10   48 1
    24   11   12 1
    25   11   49 1
    26   11   50 1
    27   12   13 1
    28   12   14 1
    29   13   51 1
    30   13   52 1
    31   14   18 1
    32   14   15 2
    33   15   16 1
    34   16   23 1
    35   16   17 2
    36   17   18 1
    37   17   19 1
    38   19   20 2
    39   19   21 am
    40   21   22 1
    41   21   24 1
    42   22   23 2
    43   22   53 1
    44   24   25 1
    45   24   54 1
    46   24   55 1
    47   25   26 2
    48   25   27 am
    49   27   28 1
    50   27   56 1
    51   28   33 ar
    52   28   29 ar
    53   29   30 ar
    54   29   57 1
    55   30   31 ar
    56   30   58 1
    57   31   36 1
    58   31   32 ar
    59   32   33 ar
    60   32   34 1
    61   33   59 1
    62   34   35 1
    63   34   60 1
    64   34   61 1
    65   35   36 1
    66   35   62 1
    67   35   63 1
    68   36   64 1
    69   36   65 1
@<TRIPOS>MOLECULE
ZINC11052322
   60    63     0     0     0
SMALL
USER_CHARGES

@<TRIPOS>ATOM
      1 C1         -0.0187    1.5258    0.0104 C.3       1 <0>        -0.1707
      2 C2          0.0021   -0.0041    0.0020 C.3       1 <0>         0.0737
      3 H1         -1.0205   -0.3814    0.0098 H         1 <0>         0.1200
      4 C3          0.7309   -0.5033    1.2229 C.2       1 <0>         0.5206
      5 O1          1.7740   -1.1089    1.1008 O.2       1 <0>        -0.4368
      6 N1          0.2232   -0.2765    2.4506 N.am      1 <0>        -0.6873
      7 C4          0.8750   -0.7229    3.5425 C.2       1 <0>         0.6946
      8 O2          1.9207   -1.3301    3.4200 O.2       1 <0>        -0.5242
      9 N2          0.3673   -0.4961    4.7702 N.am      1 <0>        -0.7287
     10 C5          1.0758   -0.9814    5.9570 C.3       1 <0>         0.1542
     11 C6          2.1032    0.0696    6.4257 C.3       1 <0>        -0.1357
     12 C7          1.3586    0.8636    7.5277 C.3       1 <0>        -0.1261
     13 C8          0.5462   -0.2379    8.2528 C.3       1 <0>        -0.1258
     14 C9          0.0859   -1.1769    7.1187 C.3       1 <0>        -0.1307
     15 O3          0.6709   -0.4649   -1.1737 O.3       1 <0>        -0.3147
     16 C10        -0.0879   -0.6731   -2.2672 C.2       1 <0>         0.5182
     17 O4         -1.2845   -0.4690   -2.2239 O.2       1 <0>        -0.4829
     18 C11         0.5354   -1.1497   -3.5193 C.ar      1 <0>         0.0039
     19 C12         1.9013   -1.3954   -3.5907 C.ar      1 <0>        -0.1343
     20 C13         2.4536   -1.8469   -4.7963 C.ar      1 <0>         0.2803
     21 N3          1.7005   -2.0437   -5.8687 N.ar      1 <0>        -0.4677
     22 C14         0.3944   -1.8253   -5.8557 C.ar      1 <0>         0.3199
     23 C15        -0.2413   -1.3754   -4.6806 C.ar      1 <0>        -0.1781
     24 C16        -1.6143   -1.2441   -4.9754 C.2       1 <0>         0.0866
     25 N4         -1.8077   -1.5872   -6.2173 N.2       1 <0>        -0.2222
     26 N5         -0.5887   -1.9472   -6.8039 N.pl3     1 <0>        -0.3758
     27 C17        -0.3985   -2.3917   -8.1868 C.3       1 <0>         0.1631
     28 C18        -1.2329   -3.6495   -8.4375 C.3       1 <0>        -0.1628
     29 C19        -0.8444   -1.2848   -9.1443 C.3       1 <0>        -0.1623
     30 C20         3.9039   -2.1084   -4.8738 C.2       1 <0>        -0.1420
     31 C21         4.6475   -2.5437   -5.9400 C.2       1 <0>        -0.0966
     32 C22         6.0024   -2.7181   -5.7743 C.2       1 <0>        -0.1679
     33 C23         6.5609   -2.4547   -4.5638 C.2       1 <0>        -0.1562
     34 S1          5.1482   -1.9326   -3.6054 S.3       1 <0>         0.0979
     35 H2          1.0039    1.9031    0.0027 H         1 <0>         0.0791
     36 H3         -0.5459    1.8868   -0.8726 H         1 <0>         0.0831
     37 H4         -0.5289    1.8773    0.9072 H         1 <0>         0.0843
     38 H5         -0.6114    0.2081    2.5483 H         1 <0>         0.4107
     39 H6         -0.4673   -0.0115    4.8679 H         1 <0>         0.3980
     40 H7          1.5787   -1.9221    5.7327 H         1 <0>         0.0948
     41 H8          2.9868   -0.4179    6.8378 H         1 <0>         0.0777
     42 H9          2.3788    0.7277    5.6016 H         1 <0>         0.0702
     43 H10         2.0666    1.3339    8.2101 H         1 <0>         0.0692
     44 H11         0.6941    1.6064    7.0864 H         1 <0>         0.0658
     45 H12         1.1783   -0.7751    8.9599 H         1 <0>         0.0704
     46 H13        -0.3145    0.1957    8.7620 H         1 <0>         0.0691
     47 H14        -0.9217   -0.9107    6.7994 H         1 <0>         0.0724
     48 H15         0.1090   -2.2123    7.4587 H         1 <0>         0.0780
     49 H16         2.5301   -1.2397   -2.7265 H         1 <0>         0.1606
     50 H17        -2.3779   -0.9142   -4.2866 H         1 <0>         0.2066
     51 H18         0.6550   -2.6151   -8.3551 H         1 <0>         0.1092
     52 H19        -1.0914   -3.9802   -9.4664 H         1 <0>         0.0789
     53 H20        -0.9152   -4.4381   -7.7554 H         1 <0>         0.0605
     54 H21        -2.2864   -3.4261   -8.2692 H         1 <0>         0.0714
     55 H22        -0.2500   -0.3887   -8.9657 H         1 <0>         0.0606
     56 H23        -0.7029   -1.6155  -10.1732 H         1 <0>         0.0789
     57 H24        -1.8979   -1.0614   -8.9760 H         1 <0>         0.0712
     58 H25         4.1788   -2.7463   -6.8917 H         1 <0>         0.1430
     59 H26         6.6142   -3.0603   -6.5959 H         1 <0>         0.1404
     60 H27         7.5943   -2.5364   -4.2607 H         1 <0>         0.1924
@<TRIPOS>BOND
     1    1    2 1
     2    1   35 1
     3    1   36 1
     4    1   37 1
     5    2    3 1
     6    2    4 1
     7    2   15 1
     8    4    5 2
     9    4    6 am
    10    6    7 am
    11    6   38 1
    12    7    8 2
    13    7    9 am
    14    9   10 1
    15    9   39 1
    16   10   14 1
    17   10   11 1
    18   10   40 1
    19   11   12 1
    20   11   41 1
    21   11   42 1
    22   12   13 1
    23   12   43 1
    24   12   44 1
    25   13   14 1
    26   13   45 1
    27   13   46 1
    28   14   47 1
    29   14   48 1
    30   15   16 1
    31   16   17 2
    32   16   18 1
    33   18   23 ar
    34   18   19 ar
    35   19   20 ar
    36   19   49 1
    37   20   21 ar
    38   20   30 1
    39   21   22 ar
    40   22   26 1
    41   22   23 ar
    42   23   24 1
    43   24   25 2
    44   24   50 1
    45   25   26 1
    46   26   27 1
    47   27   28 1
    48   27   29 1
    49   27   51 1
    50   28   52 1
    51   28   53 1
    52   28   54 1
    53   29   55 1
    54   29   56 1
    55   29   57 1
    56   30   34 1
    57   30   31 2
    58   31   32 1
    59   31   58 1
    60   32   33 2
    61   32   59 1
    62   33   34 1
    63   33   60 1
@<TRIPOS>MOLECULE
ZINC07987023
   49    51     0     0     0
SMALL
USER_CHARGES
N-[(2-fluorophenyl)carbamoyl]-2-(methyl-tetralin-1-yl-amino)-acetamide
@<TRIPOS>ATOM
      1 C1         -3.6567    3.1196    1.3057 C.3       1 <0>        -0.0531
      2 C2         -1.6107    3.1240    0.0110 C.3       1 <0>        -0.0274
      3 C3         -1.4239    1.6294   -0.0375 C.2       1 <0>         0.5136
      4 O1         -2.3906    0.8985   -0.0709 O.2       1 <0>        -0.4507
      5 N1         -0.1823    1.1053   -0.0438 N.am      1 <0>        -0.6741
      6 C4         -0.0153   -0.2314   -0.0872 C.2       1 <0>         0.6977
      7 O2         -0.9844   -0.9643   -0.1156 O.2       1 <0>        -0.4985
      8 N2          1.2264   -0.7554   -0.0991 N.am      1 <0>        -0.6649
      9 C5          1.4006   -2.1448   -0.0676 C.ar      1 <0>         0.1114
     10 C6          0.4867   -2.9750   -0.7018 C.ar      1 <0>        -0.0918
     11 C7          0.6612   -4.3450   -0.6695 C.ar      1 <0>        -0.1078
     12 C8          1.7451   -4.8908   -0.0068 C.ar      1 <0>        -0.0930
     13 C9          2.6585   -4.0681    0.6262 C.ar      1 <0>        -0.1325
     14 C10         2.4925   -2.6954    0.5942 C.ar      1 <0>         0.0801
     15 F1          3.3876   -1.8910    1.2082 F         1 <0>        -0.1356
     16 C11        -3.2758    4.8443   -0.3505 C.3       1 <0>         0.0873
     17 H1         -2.7320    5.0749   -1.2665 H         1 <0>         0.1447
     18 C12        -2.7679    5.7416    0.7763 C.3       1 <0>        -0.1430
     19 C13        -3.2091    7.1807    0.4843 C.3       1 <0>        -0.1144
     20 C14        -4.7234    7.2662    0.6647 C.3       1 <0>        -0.0963
     21 C15        -5.4123    6.1780   -0.1164 C.ar      1 <0>        -0.0382
     22 C16        -4.7484    5.0639   -0.5791 C.ar      1 <0>        -0.1394
     23 C17        -5.4445    4.0932   -1.2874 C.ar      1 <0>        -0.1258
     24 C18        -6.7944    4.2378   -1.5336 C.ar      1 <0>        -0.1057
     25 C19        -7.4599    5.3582   -1.0728 C.ar      1 <0>        -0.0861
     26 C20        -6.7704    6.3230   -0.3675 C.ar      1 <0>        -0.1115
     27 H2         -3.1724    3.7030    2.0888 H         1 <0>         0.1278
     28 H3         -4.7190    3.3620    1.2763 H         1 <0>         0.1282
     29 H4         -3.5322    2.0571    1.5146 H         1 <0>         0.1295
     30 H5         -1.1540    3.5179    0.9190 H         1 <0>         0.1704
     31 H6         -1.1377    3.5777   -0.8599 H         1 <0>         0.1676
     32 H7          0.5912    1.6902   -0.0211 H         1 <0>         0.4217
     33 H8          1.9995   -0.1702   -0.1295 H         1 <0>         0.4155
     34 H9         -0.3600   -2.5501   -1.2205 H         1 <0>         0.1490
     35 H10        -0.0500   -4.9908   -1.1631 H         1 <0>         0.1387
     36 H11         1.8788   -5.9623    0.0162 H         1 <0>         0.1408
     37 H12         3.5045   -4.4974    1.1424 H         1 <0>         0.1457
     38 H13        -3.1907    5.4134    1.7259 H         1 <0>         0.0943
     39 H14        -1.6799    5.6927    0.8225 H         1 <0>         0.0942
     40 H15        -2.7177    7.8632    1.1776 H         1 <0>         0.0935
     41 H16        -2.9460    7.4446   -0.5400 H         1 <0>         0.0792
     42 H17        -4.9660    7.1585    1.7219 H         1 <0>         0.0900
     43 H18        -5.0729    8.2371    0.3135 H         1 <0>         0.0925
     44 H19        -4.9251    3.2177   -1.6480 H         1 <0>         0.1171
     45 H20        -7.3292    3.4781   -2.0843 H         1 <0>         0.1367
     46 H21        -8.5162    5.4778   -1.2638 H         1 <0>         0.1374
     47 H22        -7.2912    7.1979   -0.0075 H         1 <0>         0.1365
     48 N3         -3.0582    3.4221   -0.0114 N.4       1 <0>        -0.3849
     49 H23        -3.5083    2.8366   -0.7247 H         1 <0>         0.4336
@<TRIPOS>BOND
     1    1   27 1
     2    1   28 1
     3    1   29 1
     4    1   48 1
     5    2    3 1
     6    2   30 1
     7    2   31 1
     8    2   48 1
     9    3    4 2
    10    3    5 am
    11    5    6 am
    12    5   32 1
    13    6    7 2
    14    6    8 am
    15    8    9 1
    16    8   33 1
    17    9   14 ar
    18    9   10 ar
    19   10   11 ar
    20   10   34 1
    21   11   12 ar
    22   11   35 1
    23   12   13 ar
    24   12   36 1
    25   13   14 ar
    26   13   37 1
    27   14   15 1
    28   16   17 1
    29   16   22 1
    30   16   18 1
    31   16   48 1
    32   18   19 1
    33   18   38 1
    34   18   39 1
    35   19   20 1
    36   19   40 1
    37   19   41 1
    38   20   21 1
    39   20   42 1
    40   20   43 1
    41   21   26 ar
    42   21   22 ar
    43   22   23 ar
    44   23   24 ar
    45   23   44 1
    46   24   25 ar
    47   24   45 1
    48   25   26 ar
    49   25   46 1
    50   26   47 1
    51   48   49 1
@<TRIPOS>MOLECULE
ZINC35310557
   51    55     0     0     0
SMALL
USER_CHARGES

@<TRIPOS>ATOM
      1 C1          7.0635    3.3528   -1.9064 C.ar      1 <0>        -0.1034
      2 C2          7.7169    2.1476   -2.0839 C.ar      1 <0>        -0.1203
      3 C3          7.1470    0.9774   -1.6183 C.ar      1 <0>        -0.0987
      4 C4          5.9240    1.0125   -0.9748 C.ar      1 <0>        -0.1224
      5 C5          5.2711    2.2178   -0.7966 C.ar      1 <0>        -0.0988
      6 C6          5.8403    3.3879   -1.2634 C.ar      1 <0>        -0.1183
      7 C7          5.3023   -0.2634   -0.4682 C.3       1 <0>         0.1626
      8 N1          5.7429   -0.5086    0.9073 N.am      1 <0>        -0.7053
      9 C8          5.3108   -1.6005    1.5688 C.2       1 <0>         0.5259
     10 O1          4.5571   -2.3799    1.0254 O.2       1 <0>        -0.5255
     11 C9          5.7640   -1.8528    2.9837 C.3       1 <0>        -0.1089
     12 H1          5.9660   -0.9123    3.4963 H         1 <0>         0.1373
     13 C10         4.7078   -2.6859    3.7592 C.3       1 <0>        -0.1141
     14 C11         5.0636   -4.1287    3.3272 C.3       1 <0>         0.0282
     15 H2          4.5971   -4.3888    2.3770 H         1 <0>         0.1609
     16 C12         4.6541   -5.1043    4.4421 C.3       1 <0>        -0.1349
     17 C13         5.9808   -5.6909    4.9756 C.3       1 <0>        -0.1358
     18 C14         7.0197   -4.6147    4.5765 C.3       1 <0>        -0.0518
     19 N2          6.5470   -4.1423    3.2304 N.4       1 <0>        -0.3783
     20 C15         7.0034   -2.7606    3.0043 C.3       1 <0>         0.0951
     21 C16         7.7771   -2.6395    1.7188 C.ar      1 <0>        -0.2054
     22 C17         7.4634   -2.8863    0.4010 C.ar      1 <0>        -0.0422
     23 C18         8.4099   -2.6768   -0.5863 C.ar      1 <0>        -0.1241
     24 C19         9.6698   -2.2193   -0.2458 C.ar      1 <0>        -0.0458
     25 C20         9.9879   -1.9708    1.0732 C.ar      1 <0>        -0.1231
     26 C21         9.0405   -2.1785    2.0733 C.ar      1 <0>         0.1619
     27 N3          9.1197   -2.0022    3.4560 N.am      1 <0>        -0.6383
     28 C22         7.9681   -2.3207    4.0757 C.2       1 <0>         0.5361
     29 O2          7.7488   -2.2646    5.2673 O.2       1 <0>        -0.4466
     30 H3          7.5109    4.2676   -2.2662 H         1 <0>         0.1274
     31 H4          8.6723    2.1202   -2.5866 H         1 <0>         0.1266
     32 H5          7.6571    0.0357   -1.7575 H         1 <0>         0.1213
     33 H6          4.3155    2.2452   -0.2942 H         1 <0>         0.1243
     34 H7          5.3301    4.3295   -1.1245 H         1 <0>         0.1279
     35 H8          4.2163   -0.1724   -0.4910 H         1 <0>         0.0844
     36 H9          5.6107   -1.0946   -1.1022 H         1 <0>         0.0821
     37 H10         6.3457    0.1148    1.3419 H         1 <0>         0.4050
     38 H11         4.8259   -2.5607    4.8355 H         1 <0>         0.1147
     39 H12         3.6973   -2.4231    3.4461 H         1 <0>         0.1307
     40 H13         4.1296   -4.5725    5.2360 H         1 <0>         0.1088
     41 H14         4.0254   -5.8978    4.0381 H         1 <0>         0.1095
     42 H15         5.9430   -5.8077    6.0587 H         1 <0>         0.1200
     43 H16         6.2046   -6.6415    4.4915 H         1 <0>         0.0968
     44 H17         7.0171   -3.7945    5.2945 H         1 <0>         0.1743
     45 H18         8.0145   -5.0530    4.4974 H         1 <0>         0.1291
     46 H19         6.4785   -3.2431    0.1380 H         1 <0>         0.1440
     47 H20         8.1655   -2.8705   -1.6204 H         1 <0>         0.1459
     48 H21        10.4086   -2.0561   -1.0165 H         1 <0>         0.1485
     49 H22        10.9740   -1.6138    1.3312 H         1 <0>         0.1437
     50 H23         9.9127   -1.6863    3.9168 H         1 <0>         0.4364
     51 H24         6.8551   -4.7612    2.4955 H         1 <0>         0.4329
@<TRIPOS>BOND
     1    1    6 ar
     2    1    2 ar
     3    1   30 1
     4    2    3 ar
     5    2   31 1
     6    3    4 ar
     7    3   32 1
     8    4    5 ar
     9    4    7 1
    10    5    6 ar
    11    5   33 1
    12    6   34 1
    13    7    8 1
    14    7   35 1
    15    7   36 1
    16    8    9 am
    17    8   37 1
    18    9   10 2
    19    9   11 1
    20   11   12 1
    21   11   20 1
    22   11   13 1
    23   13   14 1
    24   13   38 1
    25   13   39 1
    26   14   15 1
    27   14   19 1
    28   14   16 1
    29   16   17 1
    30   16   40 1
    31   16   41 1
    32   17   18 1
    33   17   42 1
    34   17   43 1
    35   18   19 1
    36   18   44 1
    37   18   45 1
    38   19   20 1
    39   19   51 1
    40   20   28 1
    41   20   21 1
    42   21   26 ar
    43   21   22 ar
    44   22   23 ar
    45   22   46 1
    46   23   24 ar
    47   23   47 1
    48   24   25 ar
    49   24   48 1
    50   25   26 ar
    51   25   49 1
    52   26   27 1
    53   27   28 am
    54   27   50 1
    55   28   29 2
@<TRIPOS>MOLECULE
ZINC42167455
   33    35     0     0     0
SMALL
USER_CHARGES

@<TRIPOS>ATOM
      1 C1          0.8004    1.3835   -1.1609 C.ar      1 <0>        -0.0891
      2 C2          1.1742    2.1144   -0.0828 C.ar      1 <0>         0.0437
      3 C3          1.5771    1.4662    1.1178 C.ar      1 <0>         0.0685
      4 C4          1.5759    0.0088    1.1536 C.ar      1 <0>         0.0844
      5 C5          1.1717   -0.6974   -0.0181 C.ar      1 <0>         0.1774
      6 C6          0.7975   -0.0104   -1.1318 C.ar      1 <0>         0.0210
      7 Cl1         0.3070   -0.8885   -2.5468 Cl        1 <0>        -0.0266
      8 N1          1.1578   -2.0954   -0.0215 N.am      1 <0>        -0.6584
      9 C7          0.0571   -2.7593    0.3836 C.2       1 <0>         0.5152
     10 O1         -0.9504   -2.1467    0.6681 O.2       1 <0>        -0.5315
     11 C8          0.0779   -4.2629    0.4830 C.3       1 <0>        -0.1656
     12 C9         -1.2869   -4.7613    0.9624 C.3       1 <0>         0.0441
     13 H1         -1.5467   -4.2806    1.9055 H         1 <0>         0.1487
     14 C10        -1.2514   -6.2931    1.1463 C.3       1 <0>        -0.1374
     15 C11        -2.6495   -6.7381    0.6422 C.3       1 <0>        -0.1434
     16 C12        -2.8937   -5.7443   -0.5207 C.3       1 <0>        -0.0103
     17 N2         -2.3143   -4.4635   -0.0523 N.4       1 <0>        -0.5106
     18 N3          1.9699   -0.4876    2.3261 N.2       1 <0>        -0.5023
     19 S1          2.2957    0.7881    3.2505 S.3       1 <0>         0.7094
     20 N4          1.9723    2.0185    2.2657 N.2       1 <0>        -0.4752
     21 Cl2         1.1620    3.8483   -0.1672 Cl        1 <0>        -0.0037
     22 H2          0.4933    1.8927   -2.0624 H         1 <0>         0.1699
     23 H3          1.9403   -2.5875   -0.3155 H         1 <0>         0.4225
     24 H4          0.2969   -4.6888   -0.4962 H         1 <0>         0.1247
     25 H5          0.8464   -4.5695    1.1926 H         1 <0>         0.1481
     26 H6         -0.4633   -6.7362    0.5375 H         1 <0>         0.1040
     27 H7         -1.1201   -6.5522    2.1968 H         1 <0>         0.1173
     28 H8         -2.6249   -7.7655    0.2791 H         1 <0>         0.1199
     29 H9         -3.4018   -6.6191    1.4220 H         1 <0>         0.1008
     30 H10        -2.3860   -6.0843   -1.4234 H         1 <0>         0.1339
     31 H11        -3.9620   -5.6310   -0.7051 H         1 <0>         0.1380
     32 H12        -3.0377   -3.8900    0.3552 H         1 <0>         0.4370
     33 H13        -1.8933   -3.9760   -0.8289 H         1 <0>         0.4256
@<TRIPOS>BOND
     1    1    6 ar
     2    1    2 ar
     3    1   22 1
     4    2    3 ar
     5    2   21 1
     6    3   20 2
     7    3    4 ar
     8    4    5 ar
     9    4   18 2
    10    5    6 ar
    11    5    8 1
    12    6    7 1
    13    8    9 am
    14    8   23 1
    15    9   10 2
    16    9   11 1
    17   11   12 1
    18   11   24 1
    19   11   25 1
    20   12   13 1
    21   12   17 1
    22   12   14 1
    23   14   15 1
    24   14   26 1
    25   14   27 1
    26   15   16 1
    27   15   28 1
    28   15   29 1
    29   16   17 1
    30   16   30 1
    31   16   31 1
    32   17   32 1
    33   17   33 1
    34   18   19 1
    35   19   20 1
@<TRIPOS>MOLECULE
ZINC39252968
   47    50     0     0     0
SMALL
USER_CHARGES

@<TRIPOS>ATOM
      1 C1         -0.0184    1.5028    0.0103 C.3       1 <0>        -0.1345
      2 C2          0.0021   -0.0041    0.0020 C.2       1 <0>         0.3283
      3 C3         -1.1066   -0.8252    0.0027 C.2       1 <0>        -0.4125
      4 C4         -0.6036   -2.2082   -0.0072 C.2       1 <0>         0.5643
      5 O1         -1.2713   -3.2255   -0.0099 O.2       1 <0>        -0.5102
      6 N1          0.7432   -2.1270   -0.0129 N.am      1 <0>        -0.4143
      7 N2          1.1074   -0.7772   -0.0132 N.pl3     1 <0>        -0.4179
      8 H1          2.0190   -0.4459   -0.0210 H         1 <0>         0.4596
      9 C5          1.6686   -3.2627   -0.0234 C.3       1 <0>         0.4091
     10 H2          1.1258   -4.2079   -0.0135 H         1 <0>         0.1808
     11 N3          2.5821   -3.1896   -1.1717 N.pl3     1 <0>        -0.7394
     12 C6          3.9457   -3.0779   -0.9044 C.ar      1 <0>         0.1552
     13 C7          4.9650   -2.9963   -1.8699 C.ar      1 <0>        -0.1435
     14 C8          6.2863   -2.8883   -1.5033 C.ar      1 <0>        -0.0690
     15 C9          6.6577   -2.8557   -0.1718 C.ar      1 <0>        -0.1292
     16 C10         5.6750   -2.9342    0.8009 C.ar      1 <0>        -0.0381
     17 C11         4.3531   -3.0427    0.4328 C.ar      1 <0>        -0.1449
     18 S1          2.8512   -3.1648    1.3797 S.3       1 <0>        -0.0931
     19 C12        -2.5125   -0.4023    0.0119 C.2       1 <0>         0.3980
     20 N4         -3.4572   -1.2913    0.0114 N.pl3     1 <0>        -0.5564
     21 C13        -4.8601   -0.8693    0.0206 C.3       1 <0>         0.0922
     22 C14        -5.5502   -1.4202    1.2700 C.3       1 <0>        -0.1343
     23 C15        -7.0153   -0.9794    1.2796 C.3       1 <0>        -0.1173
     24 C16        -7.7175   -1.5160    0.0307 C.3       1 <0>        -0.1311
     25 C17        -7.0274   -0.9651   -1.2188 C.3       1 <0>        -0.1173
     26 C18        -5.5623   -1.4059   -1.2284 C.3       1 <0>        -0.1339
     27 H3          1.0042    1.8801    0.0026 H         1 <0>         0.1015
     28 H4         -0.5455    1.8639   -0.8728 H         1 <0>         0.1226
     29 H5         -0.5286    1.8543    0.9071 H         1 <0>         0.1240
     30 H6          2.2488   -3.2185   -2.0822 H         1 <0>         0.4185
     31 H7          4.7057   -3.0194   -2.9180 H         1 <0>         0.1280
     32 H8          7.0463   -2.8276   -2.2682 H         1 <0>         0.1372
     33 H9          7.6981   -2.7706    0.1053 H         1 <0>         0.1420
     34 H10         5.9454   -2.9099    1.8463 H         1 <0>         0.1370
     35 H11        -2.7601    0.6489    0.0191 H         1 <0>         0.2043
     36 H12        -4.9120    0.2195    0.0271 H         1 <0>         0.1235
     37 H13        -5.4984   -2.5089    1.2636 H         1 <0>         0.0815
     38 H14        -5.0500   -1.0379    2.1598 H         1 <0>         0.0799
     39 H15        -7.5070   -1.3719    2.1698 H         1 <0>         0.0811
     40 H16        -7.0672    0.1093    1.2861 H         1 <0>         0.0723
     41 H17        -7.6657   -2.6048    0.0242 H         1 <0>         0.0689
     42 H18        -8.7613   -1.2021    0.0375 H         1 <0>         0.0768
     43 H19        -7.5277   -1.3474   -2.1085 H         1 <0>         0.0809
     44 H20        -7.0793    0.1236   -1.2123 H         1 <0>         0.0723
     45 H21        -5.0706   -1.0134   -2.1185 H         1 <0>         0.0792
     46 H22        -5.5104   -2.4946   -1.2349 H         1 <0>         0.0813
     47 H23        -3.2348   -2.2354    0.0049 H         1 <0>         0.4367
@<TRIPOS>BOND
     1    1    2 1
     2    1   27 1
     3    1   28 1
     4    1   29 1
     5    2    7 1
     6    2    3 2
     7    3    4 1
     8    3   19 1
     9    4    5 2
    10    4    6 am
    11    6    7 1
    12    6    9 1
    13    7    8 1
    14    9   10 1
    15    9   18 1
    16    9   11 1
    17   11   12 1
    18   11   30 1
    19   12   17 ar
    20   12   13 ar
    21   13   14 ar
    22   13   31 1
    23   14   15 ar
    24   14   32 1
    25   15   16 ar
    26   15   33 1
    27   16   17 ar
    28   16   34 1
    29   17   18 1
    30   19   20 2
    31   19   35 1
    32   20   21 1
    33   20   47 1
    34   21   26 1
    35   21   22 1
    36   21   36 1
    37   22   23 1
    38   22   37 1
    39   22   38 1
    40   23   24 1
    41   23   39 1
    42   23   40 1
    43   24   25 1
    44   24   41 1
    45   24   42 1
    46   25   26 1
    47   25   43 1
    48   25   44 1
    49   26   45 1
    50   26   46 1
@<TRIPOS>MOLECULE
ZINC65818832
   48    49     0     0     0
SMALL
USER_CHARGES

@<TRIPOS>ATOM
      1 C1          0.1700    1.7255   -0.1635 C.3       1 <0>        -0.1534
      2 C2          0.1765    0.1955   -0.1598 C.3       1 <0>        -0.0890
      3 C3          0.9965   -0.3139   -1.3468 C.3       1 <0>        -0.1260
      4 C4          1.0030   -1.8439   -1.3431 C.3       1 <0>        -0.1192
      5 C5          1.6252   -2.3481   -0.0395 C.3       1 <0>        -0.1334
      6 C6          0.8052   -1.8387    1.1475 C.3       1 <0>         0.0457
      7 C7          0.7988   -0.3087    1.1438 C.3       1 <0>        -0.1282
      8 C8         -0.6306   -2.3551    1.0346 C.3       1 <0>         0.1175
      9 N1         -0.6265   -3.8198    1.0637 N.am      1 <0>        -0.7560
     10 C9         -1.7744   -4.5007    0.8766 C.2       1 <0>         0.7126
     11 O1         -2.8134   -3.8994    0.6836 O.2       1 <0>        -0.5512
     12 N2         -1.7706   -5.8482    0.9034 N.am      1 <0>        -0.6717
     13 C10        -2.9748   -6.5541    0.7919 C.ar      1 <0>         0.1192
     14 C11        -4.0106   -6.0633    0.0022 C.ar      1 <0>        -0.0628
     15 C12        -5.1832   -6.7974   -0.0767 C.ar      1 <0>        -0.1450
     16 C13        -5.2862   -7.9836    0.6253 C.ar      1 <0>         0.1122
     17 N3         -4.2866   -8.4223    1.3654 N.ar      1 <0>        -0.4551
     18 C14        -3.1514   -7.7580    1.4637 C.ar      1 <0>         0.1526
     19 Cl1        -1.8680   -8.3898    2.4473 Cl        1 <0>        -0.0285
     20 N4          1.4027   -2.3228    2.3992 N.4       1 <0>        -0.3831
     21 C15         2.7408   -1.7386    2.5611 C.3       1 <0>        -0.0568
     22 C16         0.5551   -1.9266    3.5317 C.3       1 <0>        -0.0603
     23 H1          1.1929    2.0934   -0.0830 H         1 <0>         0.0607
     24 H2         -0.2733    2.0847   -1.0922 H         1 <0>         0.0692
     25 H3         -0.4142    2.0884    0.6822 H         1 <0>         0.0616
     26 H4         -0.8464   -0.1724   -0.2402 H         1 <0>         0.0843
     27 H5          0.5531    0.0453   -2.2755 H         1 <0>         0.0822
     28 H6          2.0194    0.0540   -1.2664 H         1 <0>         0.0727
     29 H7         -0.0199   -2.2117   -1.4235 H         1 <0>         0.0765
     30 H8          1.5871   -2.2068   -2.1887 H         1 <0>         0.0877
     31 H9          1.6299   -3.4381   -0.0368 H         1 <0>         0.0842
     32 H10         2.6481   -1.9802    0.0410 H         1 <0>         0.0946
     33 H11         1.8216    0.0592    1.2243 H         1 <0>         0.0977
     34 H12         0.2146    0.0542    1.9895 H         1 <0>         0.0924
     35 H13        -1.2195   -1.9767    1.8702 H         1 <0>         0.0970
     36 H14        -1.0676   -2.0115    0.0970 H         1 <0>         0.1226
     37 H15         0.2024   -4.2995    1.2177 H         1 <0>         0.3914
     38 H16        -0.9337   -6.3290    0.9999 H         1 <0>         0.4118
     39 H17        -3.9031   -5.1330   -0.5357 H         1 <0>         0.1620
     40 H18        -6.0076   -6.4465   -0.6798 H         1 <0>         0.1531
     41 H19        -6.1983   -8.5591    0.5672 H         1 <0>         0.1745
     42 H20         2.6535   -0.6591    2.6840 H         1 <0>         0.1279
     43 H21         3.2202   -2.1670    3.4414 H         1 <0>         0.1282
     44 H22         3.3416   -1.9564    1.6781 H         1 <0>         0.1264
     45 H23        -0.4377   -2.3601    3.4116 H         1 <0>         0.1256
     46 H24         0.9985   -2.2858    4.4604 H         1 <0>         0.1294
     47 H25         0.4758   -0.8400    3.5635 H         1 <0>         0.1284
     48 H26         1.4762   -3.3287    2.3698 H         1 <0>         0.4181
@<TRIPOS>BOND
     1    1    2 1
     2    1   23 1
     3    1   24 1
     4    1   25 1
     5    2    7 1
     6    2    3 1
     7    2   26 1
     8    3    4 1
     9    3   27 1
    10    3   28 1
    11    4    5 1
    12    4   29 1
    13    4   30 1
    14    5    6 1
    15    5   31 1
    16    5   32 1
    17    6    7 1
    18    6    8 1
    19    6   20 1
    20    7   33 1
    21    7   34 1
    22    8    9 1
    23    8   35 1
    24    8   36 1
    25    9   10 am
    26    9   37 1
    27   10   11 2
    28   10   12 am
    29   12   13 1
    30   12   38 1
    31   13   18 ar
    32   13   14 ar
    33   14   15 ar
    34   14   39 1
    35   15   16 ar
    36   15   40 1
    37   16   17 ar
    38   16   41 1
    39   17   18 ar
    40   18   19 1
    41   20   21 1
    42   20   22 1
    43   20   48 1
    44   21   42 1
    45   21   43 1
    46   21   44 1
    47   22   45 1
    48   22   46 1
    49   22   47 1
@<TRIPOS>MOLECULE
ZINC06768752
   48    51     0     0     0
SMALL
USER_CHARGES
6-(2,3-dimethylcyclohexyl)amino-7-(4-fluorophenyl)-4,5,8-triazabicyclo[3.3.0]octa-1,3,6-triene-2-carbonitrile
@<TRIPOS>ATOM
      1 C1         -2.9281    1.5699   -2.4602 C.3       1 <0>        -0.1500
      2 C2         -2.1881    1.0631   -1.2207 C.3       1 <0>        -0.0818
      3 H1         -2.1733   -0.0268   -1.2266 H         1 <0>         0.0704
      4 C3         -2.9042    1.5565    0.0381 C.3       1 <0>        -0.1179
      5 C4         -2.1642    1.0497    1.2777 C.3       1 <0>        -0.1157
      6 C5         -0.7288    1.5792    1.2668 C.3       1 <0>        -0.0989
      7 C6         -0.0127    1.0858    0.0080 C.3       1 <0>         0.0822
      8 H2          0.0021   -0.0041    0.0020 H         1 <0>         0.0829
      9 C7         -0.7527    1.5927   -1.2315 C.3       1 <0>        -0.0878
     10 H3         -0.2425    1.2411   -2.1283 H         1 <0>         0.0677
     11 C8         -0.7734    3.1225   -1.2231 C.3       1 <0>        -0.1509
     12 N1          1.3654    1.5943   -0.0024 N.pl3     1 <0>        -0.5824
     13 C9          2.2103    0.7630    0.7316 C.2       1 <0>         0.2694
     14 C10         3.5369    0.9477    0.9190 C.2       1 <0>         0.0536
     15 N2          4.0040   -0.1027    1.7085 N.pl3     1 <0>        -0.5681
     16 H4          4.9181   -0.2340    2.0051 H         1 <0>         0.4422
     17 C11         2.9375   -0.9155    1.9889 C.2       1 <0>         0.3317
     18 N3          1.8347   -0.3885    1.3980 N.pl3     1 <0>        -0.3162
     19 N4          0.7469   -1.2236    1.6815 N.2       1 <0>        -0.2876
     20 C12         1.1481   -2.2212    2.4216 C.2       1 <0>         0.1510
     21 C13         2.5335   -2.0787    2.6499 C.2       1 <0>        -0.2325
     22 C14         3.3666   -2.9585    3.4131 C.1       1 <0>         0.2942
     23 N5          4.0274   -3.6565    4.0185 N.1       1 <0>        -0.4426
     24 C15         4.3459    2.0614    0.3830 C.ar      1 <0>        -0.0230
     25 C16         4.2009    2.4553   -0.9490 C.ar      1 <0>        -0.0646
     26 C17         4.9545    3.4999   -1.4422 C.ar      1 <0>        -0.1443
     27 C18         5.8629    4.1500   -0.6223 C.ar      1 <0>         0.1110
     28 C19         6.0152    3.7598    0.6986 C.ar      1 <0>        -0.1463
     29 C20         5.2626    2.7206    1.2046 C.ar      1 <0>        -0.0720
     30 F1          6.6028    5.1686   -1.1126 F         1 <0>        -0.1341
     31 H5         -2.4179    1.2184   -3.3570 H         1 <0>         0.0533
     32 H6         -3.9507    1.1926   -2.4524 H         1 <0>         0.0558
     33 H7         -2.9429    2.6598   -2.4542 H         1 <0>         0.0594
     34 H8         -2.9190    2.6464    0.0441 H         1 <0>         0.0660
     35 H9         -3.9268    1.1792    0.0459 H         1 <0>         0.0624
     36 H10        -2.6744    1.4012    2.1745 H         1 <0>         0.0630
     37 H11        -2.1494   -0.0402    1.2717 H         1 <0>         0.0668
     38 H12        -0.2017    1.2182    2.1499 H         1 <0>         0.0599
     39 H13        -0.7436    2.6691    1.2728 H         1 <0>         0.0683
     40 H14         0.2491    3.4998   -1.2308 H         1 <0>         0.0590
     41 H15        -1.3006    3.4836   -2.1062 H         1 <0>         0.0572
     42 H16        -1.2836    3.4740   -0.3263 H         1 <0>         0.0645
     43 H17         1.7016    1.7084   -0.9469 H         1 <0>         0.3642
     44 H18         0.5253   -3.0201    2.7960 H         1 <0>         0.2075
     45 H19         3.4969    1.9459   -1.5903 H         1 <0>         0.1319
     46 H20         4.8398    3.8086   -2.4708 H         1 <0>         0.1437
     47 H21         6.7247    4.2702    1.3330 H         1 <0>         0.1423
     48 H22         5.3819    2.4176    2.2343 H         1 <0>         0.1352
@<TRIPOS>BOND
     1    1    2 1
     2    1   31 1
     3    1   32 1
     4    1   33 1
     5    2    3 1
     6    2    9 1
     7    2    4 1
     8    4    5 1
     9    4   34 1
    10    4   35 1
    11    5    6 1
    12    5   36 1
    13    5   37 1
    14    6    7 1
    15    6   38 1
    16    6   39 1
    17    7    8 1
    18    7    9 1
    19    7   12 1
    20    9   10 1
    21    9   11 1
    22   11   40 1
    23   11   41 1
    24   11   42 1
    25   12   13 1
    26   12   43 1
    27   13   18 1
    28   13   14 2
    29   14   15 1
    30   14   24 1
    31   15   16 1
    32   15   17 1
    33   17   21 2
    34   17   18 1
    35   18   19 1
    36   19   20 2
    37   20   21 1
    38   20   44 1
    39   21   22 1
    40   22   23 3
    41   24   29 ar
    42   24   25 ar
    43   25   26 ar
    44   25   45 1
    45   26   27 ar
    46   26   46 1
    47   27   28 ar
    48   27   30 1
    49   28   29 ar
    50   28   47 1
    51   29   48 1
@<TRIPOS>MOLECULE
ZINC13550365
   36    38     0     0     0
SMALL
USER_CHARGES
3-(2-fluorophenyl)-1-[5-(o-tolyl)-1,3,4-thiadiazol-2-yl]urea
@<TRIPOS>ATOM
      1 C1          3.7409   -0.6848    0.0036 C.3       1 <0>        -0.1172
      2 C2          2.4197    0.0397    0.0308 C.ar      1 <0>        -0.0320
      3 C3          2.3878    1.4191    0.0482 C.ar      1 <0>        -0.1213
      4 C4          1.1759    2.0856    0.0737 C.ar      1 <0>        -0.0929
      5 C5         -0.0115    1.3750    0.0819 C.ar      1 <0>        -0.1249
      6 C6          0.0065   -0.0042    0.0647 C.ar      1 <0>        -0.0879
      7 C7          1.2260   -0.6829    0.0390 C.ar      1 <0>        -0.0204
      8 C8          1.2527   -2.1609    0.0200 C.2       1 <0>         0.0839
      9 N1          2.2855   -2.9938   -0.0046 N.2       1 <0>        -0.2317
     10 N2          2.0986   -4.2422   -0.0179 N.2       1 <0>        -0.2881
     11 C9          0.8844   -4.7686   -0.0080 C.2       1 <0>         0.2818
     12 S1         -0.0979   -3.3339    0.0315 S.3       1 <0>         0.0443
     13 N3          0.4994   -6.1035   -0.0196 N.am      1 <0>        -0.6302
     14 C10         1.4341   -7.0742   -0.0451 C.2       1 <0>         0.7067
     15 O1          2.6142   -6.7817   -0.0579 O.2       1 <0>        -0.5100
     16 N4          1.0607   -8.3691   -0.0564 N.am      1 <0>        -0.6870
     17 C11         2.0272   -9.3757   -0.1771 C.ar      1 <0>         0.1342
     18 C12         3.2775   -9.2126    0.4031 C.ar      1 <0>        -0.0953
     19 C13         4.2271  -10.2093    0.2870 C.ar      1 <0>        -0.1078
     20 C14         3.9376  -11.3648   -0.4152 C.ar      1 <0>        -0.1041
     21 C15         2.6955  -11.5296   -0.9999 C.ar      1 <0>        -0.1352
     22 C16         1.7383  -10.5381   -0.8832 C.ar      1 <0>         0.0720
     23 F1          0.5247  -10.6987   -1.4547 F         1 <0>        -0.1380
     24 H1          4.5610    0.0482    0.0008 H         1 <0>         0.0656
     25 H2          3.8003   -1.3050   -0.9029 H         1 <0>         0.0813
     26 H3          3.8256   -1.3264    0.8931 H         1 <0>         0.0813
     27 H4          3.3109    1.9795    0.0420 H         1 <0>         0.1329
     28 H5          1.1563    3.1653    0.0870 H         1 <0>         0.1299
     29 H6         -0.9544    1.9014    0.0972 H         1 <0>         0.1317
     30 H7         -0.9209   -0.5576    0.0708 H         1 <0>         0.1258
     31 H8         -0.5682   -6.3681   -0.0080 H         1 <0>         0.4538
     32 H9         -0.0031   -8.6355    0.0292 H         1 <0>         0.4363
     33 H10         3.5066   -8.3088    0.9482 H         1 <0>         0.1509
     34 H11         5.1985  -10.0840    0.7420 H         1 <0>         0.1351
     35 H12         4.6837  -12.1403   -0.5076 H         1 <0>         0.1358
     36 H13         2.4727  -12.4329   -1.5483 H         1 <0>         0.1406
@<TRIPOS>BOND
     1    1    2 1
     2    1   24 1
     3    1   25 1
     4    1   26 1
     5    2    7 ar
     6    2    3 ar
     7    3    4 ar
     8    3   27 1
     9    4    5 ar
    10    4   28 1
    11    5    6 ar
    12    5   29 1
    13    6    7 ar
    14    6   30 1
    15    7    8 1
    16    8   12 1
    17    8    9 2
    18    9   10 1
    19   10   11 2
    20   11   12 1
    21   11   13 1
    22   13   14 am
    23   13   31 1
    24   14   15 2
    25   14   16 am
    26   16   17 1
    27   16   32 1
    28   17   22 ar
    29   17   18 ar
    30   18   19 ar
    31   18   33 1
    32   19   20 ar
    33   19   34 1
    34   20   21 ar
    35   20   35 1
    36   21   22 ar
    37   21   36 1
    38   22   23 1
@<TRIPOS>MOLECULE
ZINC14479913
   42    45     0     0     0
SMALL
USER_CHARGES

@<TRIPOS>ATOM
      1 C1         -0.1768    1.6014    0.2068 C.3       1 <0>        -0.1177
      2 C2         -0.1255    0.0960    0.1610 C.ar      1 <0>        -0.0814
      3 C3         -0.1071   -0.5584   -1.0567 C.ar      1 <0>        -0.1141
      4 C4         -0.0601   -1.9391   -1.0987 C.ar      1 <0>        -0.1126
      5 C5         -0.0309   -2.6658    0.0771 C.ar      1 <0>        -0.1105
      6 C6         -0.0483   -2.0117    1.2945 C.ar      1 <0>        -0.0946
      7 C7         -0.0911   -0.6304    1.3364 C.ar      1 <0>        -0.1044
      8 C8         -0.0170   -2.8038    2.5761 C.3       1 <0>         0.2065
      9 H1         -0.3844   -2.1960    3.4029 H         1 <0>         0.0868
     10 C9          1.3953   -3.2814    2.8632 C.3       1 <0>        -0.0975
     11 H2          1.7530   -3.9560    2.0854 H         1 <0>         0.0951
     12 C10         2.4404   -2.2111    3.2049 C.3       1 <0>        -0.0845
     13 C11         3.3956   -2.9915    4.1100 C.2       1 <0>        -0.1524
     14 C12         2.7507   -3.9950    4.6927 C.2       1 <0>        -0.1691
     15 C13         1.3220   -3.9830    4.2526 C.3       1 <0>        -0.0415
     16 H3          0.7802   -3.3217    4.9288 H         1 <0>         0.0990
     17 C14         0.5175   -5.2144    4.0968 C.ar      1 <0>        -0.0757
     18 C15         0.7891   -6.3699    4.8000 C.ar      1 <0>         0.0103
     19 C16         0.0010   -7.4926    4.6316 C.ar      1 <0>        -0.1071
     20 C17        -1.0682   -7.4621    3.7546 C.ar      1 <0>        -0.0905
     21 C18        -1.3470   -6.3107    3.0404 C.ar      1 <0>         0.0720
     22 C19        -0.5527   -5.1763    3.1993 C.ar      1 <0>         0.2078
     23 N1         -0.8346   -4.0292    2.4397 N.pl3     1 <0>        -0.7282
     24 O1         -2.4002   -6.2853    2.1801 O.3       1 <0>        -0.4860
     25 N2          1.9317   -6.4075    5.7401 N.pl3     1 <0>         0.0284
     26 O2          2.7645   -7.2786    5.6447 O.2       1 <0>        -0.1454
     27 O3          2.0321   -5.5670    6.6033 O.3       1 <0>        -0.1399
     28 H4          0.8379    1.9996    0.2095 H         1 <0>         0.0730
     29 H5         -0.7108    1.9735   -0.6676 H         1 <0>         0.0682
     30 H6         -0.6946    1.9200    1.1115 H         1 <0>         0.0677
     31 H7         -0.1299    0.0093   -1.9752 H         1 <0>         0.1239
     32 H8         -0.0464   -2.4503   -2.0500 H         1 <0>         0.1246
     33 H9          0.0052   -3.7447    0.0443 H         1 <0>         0.1217
     34 H10        -0.1009   -0.1191    2.2877 H         1 <0>         0.1241
     35 H11         2.9505   -1.8625    2.3069 H         1 <0>         0.0792
     36 H12         1.9859   -1.3786    3.7420 H         1 <0>         0.0848
     37 H13         4.4408   -2.7603    4.2535 H         1 <0>         0.1363
     38 H14         3.1874   -4.7187    5.3650 H         1 <0>         0.1397
     39 H15         0.2203   -8.3941    5.1845 H         1 <0>         0.1472
     40 H16        -1.6861   -8.3386    3.6270 H         1 <0>         0.1530
     41 H17        -1.5757   -4.0404    1.8140 H         1 <0>         0.4113
     42 H18        -3.2313   -6.0006    2.5841 H         1 <0>         0.3924
@<TRIPOS>BOND
     1    1    2 1
     2    1   28 1
     3    1   29 1
     4    1   30 1
     5    2    7 ar
     6    2    3 ar
     7    3    4 ar
     8    3   31 1
     9    4    5 ar
    10    4   32 1
    11    5    6 ar
    12    5   33 1
    13    6    7 ar
    14    6    8 1
    15    7   34 1
    16    8    9 1
    17    8   23 1
    18    8   10 1
    19   10   11 1
    20   10   15 1
    21   10   12 1
    22   12   13 1
    23   12   35 1
    24   12   36 1
    25   13   14 2
    26   13   37 1
    27   14   15 1
    28   14   38 1
    29   15   16 1
    30   15   17 1
    31   17   22 ar
    32   17   18 ar
    33   18   19 ar
    34   18   25 1
    35   19   20 ar
    36   19   39 1
    37   20   21 ar
    38   20   40 1
    39   21   22 ar
    40   21   24 1
    41   22   23 1
    42   23   41 1
    43   24   42 1
    44   25   26 2
    45   25   27 1
@<TRIPOS>MOLECULE
ZINC44013093
   50    51     0     0     0
SMALL
USER_CHARGES

@<TRIPOS>ATOM
      1 C1          0.3979   -3.0381    2.0340 C.3       1 <0>        -0.1297
      2 C2          0.1859   -2.0372    0.8964 C.3       1 <0>        -0.0842
      3 C3         -1.3106   -1.9034    0.6071 C.3       1 <0>        -0.1433
      4 C4          0.7503   -0.6748    1.3041 C.3       1 <0>        -0.1430
      5 C5          0.8950   -2.5250   -0.3406 C.2       1 <0>         0.5224
      6 O1          1.5095   -3.5703   -0.3149 O.2       1 <0>        -0.5159
      7 N1          0.8464   -1.7996   -1.4755 N.am      1 <0>        -0.6715
      8 C6          1.5830   -2.2018   -2.5950 C.ar      1 <0>         0.1594
      9 C7          2.1509   -1.2498   -3.4326 C.ar      1 <0>        -0.1599
     10 C8          2.8783   -1.6461   -4.5380 C.ar      1 <0>        -0.0827
     11 C9          3.0435   -2.9899   -4.8146 C.ar      1 <0>        -0.1323
     12 C10         2.4783   -3.9465   -3.9812 C.ar      1 <0>         0.1792
     13 C11         1.7519   -3.5517   -2.8667 C.ar      1 <0>        -0.1489
     14 N2          2.6457   -5.3072   -4.2622 N.am      1 <0>        -0.6844
     15 C12         3.8007   -5.7472   -4.7997 C.2       1 <0>         0.7037
     16 O2          4.6648   -4.9530   -5.1172 O.2       1 <0>        -0.5713
     17 N3          3.9978   -7.0675   -4.9851 N.am      1 <0>        -0.6151
     18 C13         2.9483   -7.9854   -4.6023 C.3       1 <0>         0.1079
     19 C14         3.1370   -8.4026   -3.1229 C.3       1 <0>        -0.1411
     20 C15         4.3019   -9.2904   -2.9871 C.3       1 <0>        -0.1179
     21 C16         5.6309   -8.6466   -3.3704 C.3       1 <0>        -0.1175
     22 C17         5.8324   -8.7646   -4.8610 C.3       1 <0>        -0.1315
     23 C18         5.2737   -7.5163   -5.5760 C.3       1 <0>         0.1272
     24 H1         -0.0042   -4.0087    1.7436 H         1 <0>         0.0631
     25 H2          1.4640   -3.1334    2.2401 H         1 <0>         0.0635
     26 H3         -0.1150   -2.6853    2.9287 H         1 <0>         0.0652
     27 H4         -1.8235   -1.5506    1.5019 H         1 <0>         0.0731
     28 H5         -1.4616   -1.1903   -0.2033 H         1 <0>         0.0600
     29 H6         -1.7127   -2.8740    0.3167 H         1 <0>         0.0628
     30 H7          1.8164   -0.7701    1.5102 H         1 <0>         0.0629
     31 H8          0.5993    0.0383    0.4937 H         1 <0>         0.0604
     32 H9          0.2374   -0.3220    2.1988 H         1 <0>         0.0727
     33 H10         0.3007   -0.9987   -1.5161 H         1 <0>         0.4111
     34 H11         2.0233   -0.1987   -3.2193 H         1 <0>         0.1257
     35 H12         3.3185   -0.9042   -5.1878 H         1 <0>         0.1303
     36 H13         3.6124   -3.2966   -5.6798 H         1 <0>         0.1419
     37 H14         1.3155   -4.2937   -2.2145 H         1 <0>         0.1403
     38 H15         1.9304   -5.9337   -4.0702 H         1 <0>         0.4064
     39 H16         1.9799   -7.4996   -4.7217 H         1 <0>         0.0713
     40 H17         2.9907   -8.8703   -5.2372 H         1 <0>         0.0858
     41 H18         3.2894   -7.5118   -2.5135 H         1 <0>         0.0662
     42 H19         2.2439   -8.9239   -2.7784 H         1 <0>         0.0765
     43 H20         4.3645   -9.6231   -1.9510 H         1 <0>         0.0595
     44 H21         4.1460  -10.1649   -3.6189 H         1 <0>         0.0607
     45 H22         5.6202   -7.5941   -3.0871 H         1 <0>         0.0651
     46 H23         6.4440   -9.1548   -2.8521 H         1 <0>         0.0644
     47 H24         6.8970   -8.8579   -5.0756 H         1 <0>         0.0780
     48 H25         5.3129   -9.6502   -5.2270 H         1 <0>         0.0668
     49 H26         5.1138   -7.7488   -6.6288 H         1 <0>         0.0639
     50 H27         6.0022   -6.7091   -5.5002 H         1 <0>         0.0928
@<TRIPOS>BOND
     1    1    2 1
     2    1   24 1
     3    1   25 1
     4    1   26 1
     5    2    3 1
     6    2    4 1
     7    2    5 1
     8    3   27 1
     9    3   28 1
    10    3   29 1
    11    4   30 1
    12    4   31 1
    13    4   32 1
    14    5    6 2
    15    5    7 am
    16    7    8 1
    17    7   33 1
    18    8   13 ar
    19    8    9 ar
    20    9   10 ar
    21    9   34 1
    22   10   11 ar
    23   10   35 1
    24   11   12 ar
    25   11   36 1
    26   12   13 ar
    27   12   14 1
    28   13   37 1
    29   14   15 am
    30   14   38 1
    31   15   16 2
    32   15   17 am
    33   17   23 1
    34   17   18 1
    35   18   19 1
    36   18   39 1
    37   18   40 1
    38   19   20 1
    39   19   41 1
    40   19   42 1
    41   20   21 1
    42   20   43 1
    43   20   44 1
    44   21   22 1
    45   21   45 1
    46   21   46 1
    47   22   23 1
    48   22   47 1
    49   22   48 1
    50   23   49 1
    51   23   50 1
@<TRIPOS>MOLECULE
ZINC59678703
   44    46     0     0     0
SMALL
USER_CHARGES

@<TRIPOS>ATOM
      1 C1          0.0123    1.5031    0.0066 C.3       1 <0>        -0.1131
      2 C2          0.0246   -0.0038   -0.0007 C.ar      1 <0>        -0.1041
      3 C3          0.7796   -0.6921    0.9311 C.ar      1 <0>        -0.1000
      4 C4          0.7930   -2.0732    0.9271 C.ar      1 <0>        -0.1184
      5 C5          0.0468   -2.7706   -0.0138 C.ar      1 <0>         0.1566
      6 C6         -0.7108   -2.0764   -0.9480 C.ar      1 <0>        -0.1423
      7 C7         -0.7237   -0.6953   -0.9356 C.ar      1 <0>        -0.0996
      8 N1          0.0586   -4.1697   -0.0209 N.am      1 <0>        -0.6687
      9 C8          0.1754   -4.8485    1.1376 C.2       1 <0>         0.7340
     10 O1          0.1731   -4.2496    2.1961 O.2       1 <0>        -0.5661
     11 N2          0.2946   -6.1909    1.1230 N.am      1 <0>        -0.5855
     12 N3          0.2972   -6.8807   -0.0964 N.2       1 <0>        -0.2724
     13 C9          0.4121   -8.1741   -0.1105 C.2       1 <0>         0.1728
     14 C10         0.4148   -8.8990   -1.3918 C.2       1 <0>        -0.1573
     15 C11         0.5211  -10.2438   -1.5648 C.2       1 <0>         0.1360
     16 N4          0.4852  -10.5405   -2.8951 N.pl3     1 <0>        -0.4735
     17 C12         0.3530   -9.3866   -3.6380 C.ar      1 <0>         0.0899
     18 C13         0.2965   -8.3098   -2.7373 C.ar      1 <0>        -0.0727
     19 C14         0.1571   -7.0081   -3.2137 C.ar      1 <0>        -0.0650
     20 C15         0.0716   -6.7838   -4.5701 C.ar      1 <0>        -0.1410
     21 C16         0.1232   -7.8466   -5.4606 C.ar      1 <0>        -0.0987
     22 C17         0.2699   -9.1384   -5.0043 C.ar      1 <0>        -0.1257
     23 C18         0.5747  -11.8914   -3.4547 C.3       1 <0>         0.0721
     24 C19         0.6584  -11.2532   -0.4543 C.3       1 <0>        -0.1033
     25 H1         -0.7895    1.8568    0.6548 H         1 <0>         0.0692
     26 H2          0.9686    1.8725    0.3769 H         1 <0>         0.0655
     27 H3         -0.1512    1.8701   -1.0067 H         1 <0>         0.0655
     28 H4          1.3597   -0.1492    1.6626 H         1 <0>         0.1248
     29 H5          1.3835   -2.6102    1.6547 H         1 <0>         0.1343
     30 H6         -1.2919   -2.6158   -1.6813 H         1 <0>         0.1255
     31 H7         -1.3159   -0.1549   -1.6593 H         1 <0>         0.1261
     32 H8         -0.0173   -4.6511   -0.8596 H         1 <0>         0.4163
     33 H9          0.3787   -6.6794    1.9568 H         1 <0>         0.4020
     34 H10         0.5057   -8.7180    0.8179 H         1 <0>         0.1216
     35 H11         0.1159   -6.1789   -2.5229 H         1 <0>         0.1255
     36 H12        -0.0365   -5.7757   -4.9423 H         1 <0>         0.1248
     37 H13         0.0545   -7.6589   -6.5219 H         1 <0>         0.1267
     38 H14         0.3077   -9.9585   -5.7060 H         1 <0>         0.1196
     39 H15        -0.4260  -12.3135   -3.5468 H         1 <0>         0.0748
     40 H16         1.0423  -11.8469   -4.4384 H         1 <0>         0.0852
     41 H17         1.1744  -12.5188   -2.7954 H         1 <0>         0.0867
     42 H18        -0.3314  -11.5838   -0.1394 H         1 <0>         0.0868
     43 H19         1.2313  -12.1094   -0.8102 H         1 <0>         0.0761
     44 H20         1.1745  -10.7964    0.3902 H         1 <0>         0.0889
@<TRIPOS>BOND
     1    1    2 1
     2    1   25 1
     3    1   26 1
     4    1   27 1
     5    2    7 ar
     6    2    3 ar
     7    3    4 ar
     8    3   28 1
     9    4    5 ar
    10    4   29 1
    11    5    6 ar
    12    5    8 1
    13    6    7 ar
    14    6   30 1
    15    7   31 1
    16    8    9 am
    17    8   32 1
    18    9   10 2
    19    9   11 am
    20   11   12 1
    21   11   33 1
    22   12   13 2
    23   13   14 1
    24   13   34 1
    25   14   18 1
    26   14   15 2
    27   15   16 1
    28   15   24 1
    29   16   17 1
    30   16   23 1
    31   17   22 ar
    32   17   18 ar
    33   18   19 ar
    34   19   20 ar
    35   19   35 1
    36   20   21 ar
    37   20   36 1
    38   21   22 ar
    39   21   37 1
    40   22   38 1
    41   23   39 1
    42   23   40 1
    43   23   41 1
    44   24   42 1
    45   24   43 1
    46   24   44 1
@<TRIPOS>MOLECULE
ZINC06778815
   48    50     0     0     0
SMALL
USER_CHARGES
N-(2-isopropyl-6-methyl-phenyl)-8-methyl-4-oxo-2-oxa-5-azabicyclo[4.4.0]deca-6,8,10-triene-9-sulfonamide
@<TRIPOS>ATOM
      1 C1          1.8183    1.2385    1.6583 C.3       1 <0>        -0.1175
      2 C2          3.3218    1.3149    1.7271 C.ar      1 <0>        -0.0604
      3 C3          4.0682    0.1587    1.8446 C.ar      1 <0>        -0.1192
      4 C4          5.4476    0.2280    1.9088 C.ar      1 <0>        -0.1011
      5 C5          6.0848    1.4543    1.8551 C.ar      1 <0>        -0.1184
      6 C6          5.3450    2.6137    1.7319 C.ar      1 <0>        -0.0613
      7 C7          3.9584    2.5481    1.6729 C.ar      1 <0>         0.1172
      8 N1          3.2067    3.7193    1.5536 N.pl3     1 <0>        -1.0552
      9 S1          2.3819    4.0347    0.1527 S.o2      1 <0>         2.6863
     10 O1          1.6931    5.2610    0.3543 O.2       1 <0>        -0.9483
     11 O2          1.7110    2.8335   -0.2028 O.2       1 <0>        -0.9394
     12 C8          3.5820    4.3316   -1.1028 C.ar      1 <0>        -0.6736
     13 C9          3.7161    3.4403   -2.1525 C.ar      1 <0>         0.0018
     14 C10         4.6588    3.6730   -3.1380 C.ar      1 <0>         0.0510
     15 C11         5.4670    4.8074   -3.0717 C.ar      1 <0>         0.1599
     16 C12         5.3315    5.6930   -2.0160 C.ar      1 <0>        -0.1476
     17 C13         4.3861    5.4540   -1.0349 C.ar      1 <0>         0.0372
     18 C14         4.2327    6.4198    0.1117 C.3       1 <0>        -0.1414
     19 N2          6.4237    5.0271   -4.0730 N.am      1 <0>        -0.6618
     20 C15         6.3293    4.3358   -5.2297 C.2       1 <0>         0.4921
     21 O3          7.1598    4.4893   -6.1004 O.2       1 <0>        -0.4969
     22 C16         5.1873    3.3732   -5.4344 C.3       1 <0>         0.0477
     23 O4          4.8034    2.8087   -4.1778 O.3       1 <0>        -0.2953
     24 C17         6.0404    3.9491    1.6672 C.3       1 <0>        -0.0633
     25 C18         6.8384    4.1714    2.9536 C.3       1 <0>        -0.1449
     26 C19         6.9899    3.9721    0.4677 C.3       1 <0>        -0.1466
     27 H1          1.5119    1.0251    0.6342 H         1 <0>         0.1068
     28 H2          1.4643    0.4449    2.3163 H         1 <0>         0.0638
     29 H3          1.3912    2.1902    1.9745 H         1 <0>         0.0557
     30 H4          3.5738   -0.8006    1.8868 H         1 <0>         0.1292
     31 H5          6.0288   -0.6776    2.0014 H         1 <0>         0.1261
     32 H6          7.1624    1.5049    1.9051 H         1 <0>         0.1254
     33 H7          3.1678    4.3479    2.2913 H         1 <0>         0.4242
     34 H8          3.0863    2.5644   -2.2023 H         1 <0>         0.1608
     35 H9          5.9591    6.5702   -1.9611 H         1 <0>         0.1448
     36 H10         3.5596    7.2260   -0.1800 H         1 <0>         0.1023
     37 H11         3.8206    5.8968    0.9747 H         1 <0>         0.0648
     38 H12         5.2068    6.8353    0.3697 H         1 <0>         0.0886
     39 H13         7.1400    5.6673   -3.9389 H         1 <0>         0.4203
     40 H14         5.5007    2.5767   -6.1093 H         1 <0>         0.1521
     41 H15         4.3394    3.9031   -5.8683 H         1 <0>         0.1051
     42 H16         5.2985    4.7402    1.5586 H         1 <0>         0.0809
     43 H17         6.1619    4.1550    3.8082 H         1 <0>         0.0570
     44 H18         7.5803    3.3802    3.0622 H         1 <0>         0.0585
     45 H19         7.3414    5.1372    2.9068 H         1 <0>         0.0594
     46 H20         6.4214    3.8138   -0.4487 H         1 <0>         0.0568
     47 H21         7.4929    4.9380    0.4209 H         1 <0>         0.0584
     48 H22         7.7318    3.1810    0.5763 H         1 <0>         0.0579
@<TRIPOS>BOND
     1    1    2 1
     2    1   27 1
     3    1   28 1
     4    1   29 1
     5    2    7 ar
     6    2    3 ar
     7    3    4 ar
     8    3   30 1
     9    4    5 ar
    10    4   31 1
    11    5    6 ar
    12    5   32 1
    13    6    7 ar
    14    6   24 1
    15    7    8 1
    16    8    9 1
    17    8   33 1
    18    9   10 2
    19    9   11 2
    20    9   12 1
    21   12   17 ar
    22   12   13 ar
    23   13   14 ar
    24   13   34 1
    25   14   23 1
    26   14   15 ar
    27   15   16 ar
    28   15   19 1
    29   16   17 ar
    30   16   35 1
    31   17   18 1
    32   18   36 1
    33   18   37 1
    34   18   38 1
    35   19   20 am
    36   19   39 1
    37   20   21 2
    38   20   22 1
    39   22   23 1
    40   22   40 1
    41   22   41 1
    42   24   25 1
    43   24   26 1
    44   24   42 1
    45   25   43 1
    46   25   44 1
    47   25   45 1
    48   26   46 1
    49   26   47 1
    50   26   48 1
@<TRIPOS>MOLECULE
ZINC28510814
   38    41     0     0     0
SMALL
USER_CHARGES
(2S)-2-[5-(3-nitrophenyl)-2-thienyl]-2,3-dihydro-1H-quinazolin-4-one
@<TRIPOS>ATOM
      1 C1          7.0610    1.1490    4.7750 C.ar      1 <0>        -0.1706
      2 C2          7.1379    2.3410    4.0718 C.ar      1 <0>        -0.0526
      3 C3          7.1841    2.3402    2.6907 C.ar      1 <0>        -0.1803
      4 C4          7.1524    1.1381    2.0053 C.ar      1 <0>         0.2373
      5 C5          7.0764   -0.0733    2.7156 C.ar      1 <0>        -0.2035
      6 C6          7.0297   -0.0578    4.1072 C.ar      1 <0>        -0.0230
      7 C7          7.0488   -1.3339    1.9519 C.2       1 <0>         0.5773
      8 O1          7.2313   -2.3970    2.5134 O.2       1 <0>        -0.5335
      9 N1          6.8184   -1.2949    0.6231 N.am      1 <0>        -0.7441
     10 C8          6.5179   -0.0356   -0.0577 C.3       1 <0>         0.4736
     11 H1          6.9039   -0.1029   -1.0855 H         1 <0>         0.1272
     12 N2          7.1914    1.0808    0.6169 N.pl3     1 <0>        -0.7627
     13 C9          5.0291    0.1971   -0.0423 C.2       1 <0>        -0.1813
     14 C10         4.0227   -0.7144   -0.0373 C.2       1 <0>        -0.1338
     15 C11         2.7176   -0.2732   -0.0234 C.2       1 <0>        -0.1302
     16 C12         2.4786    1.0749   -0.0148 C.2       1 <0>        -0.1326
     17 S1          4.1346    1.7420   -0.0347 S.3       1 <0>         0.1170
     18 C13         1.1858    1.7917    0.0004 C.ar      1 <0>         0.0051
     19 C14        -0.0126    1.0758    0.0080 C.ar      1 <0>        -0.0526
     20 C15        -1.2155    1.7507    0.0173 C.ar      1 <0>        -0.1063
     21 C16        -1.2360    3.1343    0.0297 C.ar      1 <0>        -0.0538
     22 C17        -0.0520    3.8498    0.0223 C.ar      1 <0>        -0.0345
     23 C18         1.1581    3.1869    0.0076 C.ar      1 <0>        -0.0502
     24 N3         -0.0833    5.3296    0.0295 N.pl3     1 <0>         0.0255
     25 O2          0.9583    5.9608    0.0225 O.2       1 <0>        -0.1549
     26 O3         -1.1508    5.9161    0.0424 O.3       1 <0>        -0.1510
     27 H2          7.0250    1.1651    5.8543 H         1 <0>         0.1285
     28 H3          7.1624    3.2783    4.6078 H         1 <0>         0.1292
     29 H4          7.2442    3.2726    2.1490 H         1 <0>         0.1305
     30 H5          6.9695   -0.9838    4.6597 H         1 <0>         0.1339
     31 H6          6.8598   -2.2333    0.0507 H         1 <0>         0.4347
     32 H7          7.7116    1.8480    0.0247 H         1 <0>         0.4408
     33 H8          4.2425   -1.7717   -0.0440 H         1 <0>         0.1381
     34 H9          1.8987   -0.9773   -0.0188 H         1 <0>         0.1383
     35 H10         0.0021   -0.0041    0.0020 H         1 <0>         0.1475
     36 H11        -2.1434    1.1981    0.0190 H         1 <0>         0.1554
     37 H12        -2.1805    3.6580    0.0408 H         1 <0>         0.1586
     38 H13         2.0817    3.7466    0.0022 H         1 <0>         0.1531
@<TRIPOS>BOND
     1    1    6 ar
     2    1    2 ar
     3    1   27 1
     4    2    3 ar
     5    2   28 1
     6    3    4 ar
     7    3   29 1
     8    4   12 1
     9    4    5 ar
    10    5    6 ar
    11    5    7 1
    12    6   30 1
    13    7    8 2
    14    7    9 am
    15    9   10 1
    16    9   31 1
    17   10   11 1
    18   10   12 1
    19   10   13 1
    20   12   32 1
    21   13   17 1
    22   13   14 2
    23   14   15 1
    24   14   33 1
    25   15   16 2
    26   15   34 1
    27   16   17 1
    28   16   18 1
    29   18   23 ar
    30   18   19 ar
    31   19   20 ar
    32   19   35 1
    33   20   21 ar
    34   20   36 1
    35   21   22 ar
    36   21   37 1
    37   22   23 ar
    38   22   24 1
    39   23   38 1
    40   24   25 2
    41   24   26 1
@<TRIPOS>MOLECULE
ZINC47584323
   46    48     0     0     0
SMALL
USER_CHARGES

@<TRIPOS>ATOM
      1 C1         -2.0860    0.3064   -0.5170 C.3       1 <0>         0.0529
      2 O1         -0.9674   -0.5385   -0.2395 O.3       1 <0>        -0.3625
      3 C2         -0.3805   -1.1409   -1.2912 C.2       1 <0>         0.6467
      4 O2         -0.8065   -0.9542   -2.4138 O.2       1 <0>        -0.5525
      5 N1          0.6793   -1.9508   -1.0986 N.am      1 <0>        -0.6485
      6 C3          1.2296   -2.6535   -2.1790 C.ar      1 <0>         0.1373
      7 C4          1.2637   -2.0728   -3.4398 C.ar      1 <0>        -0.0978
      8 C5          1.8062   -2.7649   -4.5041 C.ar      1 <0>        -0.1270
      9 C6          2.3178   -4.0416   -4.3137 C.ar      1 <0>         0.1528
     10 C7          2.2838   -4.6223   -3.0529 C.ar      1 <0>        -0.0985
     11 C8          1.7460   -3.9281   -1.9875 C.ar      1 <0>        -0.1186
     12 N2          2.8681   -4.7442   -5.3941 N.am      1 <0>        -0.6837
     13 C9          2.7199   -6.0814   -5.4739 C.2       1 <0>         0.7223
     14 O3          2.1828   -6.6888   -4.5678 O.2       1 <0>        -0.5589
     15 N3          3.1672   -6.7455   -6.5582 N.am      1 <0>        -0.6286
     16 C10         3.8395   -6.1378   -7.7210 C.3       1 <0>         0.0923
     17 C11         3.5897   -7.1282   -8.8857 C.3       1 <0>        -0.1306
     18 C12         3.6856   -8.4952   -8.1581 C.3       1 <0>        -0.1246
     19 C13         3.0709   -8.1965   -6.7743 C.3       1 <0>         0.1977
     20 H1          2.0255   -8.5048   -6.7607 H         1 <0>         0.0884
     21 C14         3.8376   -8.9264   -5.7016 C.ar      1 <0>        -0.0972
     22 C15         5.0376   -8.4166   -5.2420 C.ar      1 <0>        -0.0730
     23 C16         5.7412   -9.0848   -4.2581 C.ar      1 <0>        -0.1532
     24 C17         5.2439  -10.2654   -3.7326 C.ar      1 <0>         0.0987
     25 C18         4.0420  -10.7750   -4.1937 C.ar      1 <0>        -0.1506
     26 C19         3.3374  -10.1023   -5.1740 C.ar      1 <0>        -0.0733
     27 F1          5.9312  -10.9197   -2.7709 F         1 <0>        -0.1400
     28 H2         -1.7760    1.1132   -1.1811 H         1 <0>         0.0634
     29 H3         -2.8720   -0.2771   -0.9965 H         1 <0>         0.0635
     30 H4         -2.4632    0.7275    0.4149 H         1 <0>         0.1068
     31 H5          1.0613   -2.0474   -0.2122 H         1 <0>         0.4184
     32 H6          0.8654   -1.0799   -3.5880 H         1 <0>         0.1445
     33 H7          1.8324   -2.3134   -5.4849 H         1 <0>         0.1299
     34 H8          2.6817   -5.6153   -2.9048 H         1 <0>         0.1471
     35 H9          1.7236   -4.3780   -1.0059 H         1 <0>         0.1318
     36 H10         3.3556   -4.2682   -6.0845 H         1 <0>         0.4061
     37 H11         3.4005   -5.1664   -7.9482 H         1 <0>         0.0766
     38 H12         4.9082   -6.0371   -7.5313 H         1 <0>         0.0718
     39 H13         2.5988   -6.9832   -9.3160 H         1 <0>         0.0807
     40 H14         4.3626   -7.0367   -9.6488 H         1 <0>         0.0896
     41 H15         3.1060   -9.2537   -8.6845 H         1 <0>         0.0903
     42 H16         4.7254   -8.8054   -8.0554 H         1 <0>         0.0827
     43 H17         5.4254   -7.4959   -5.6523 H         1 <0>         0.1245
     44 H18         6.6789   -8.6866   -3.8994 H         1 <0>         0.1336
     45 H19         3.6533  -11.6959   -3.7847 H         1 <0>         0.1363
     46 H20         2.3977  -10.4972   -5.5306 H         1 <0>         0.1327
@<TRIPOS>BOND
     1    1    2 1
     2    1   28 1
     3    1   29 1
     4    1   30 1
     5    2    3 1
     6    3    4 2
     7    3    5 am
     8    5    6 1
     9    5   31 1
    10    6   11 ar
    11    6    7 ar
    12    7    8 ar
    13    7   32 1
    14    8    9 ar
    15    8   33 1
    16    9   10 ar
    17    9   12 1
    18   10   11 ar
    19   10   34 1
    20   11   35 1
    21   12   13 am
    22   12   36 1
    23   13   14 2
    24   13   15 am
    25   15   19 1
    26   15   16 1
    27   16   17 1
    28   16   37 1
    29   16   38 1
    30   17   18 1
    31   17   39 1
    32   17   40 1
    33   18   19 1
    34   18   41 1
    35   18   42 1
    36   19   20 1
    37   19   21 1
    38   21   26 ar
    39   21   22 ar
    40   22   23 ar
    41   22   43 1
    42   23   24 ar
    43   23   44 1
    44   24   25 ar
    45   24   27 1
    46   25   26 ar
    47   25   45 1
    48   26   46 1
@<TRIPOS>MOLECULE
ZINC58179268
   38    42     0     0     0
SMALL
USER_CHARGES

@<TRIPOS>ATOM
      1 C1         -0.0165    1.3629    0.0095 C.ar      1 <0>        -0.1347
      2 C2          1.1700    2.0829    0.0021 C.ar      1 <0>        -0.0931
      3 C3          2.3850    1.4337   -0.0130 C.ar      1 <0>        -0.1246
      4 C4          2.4255    0.0426   -0.0208 C.ar      1 <0>         0.0916
      5 C5          1.2207   -0.6799   -0.0132 C.ar      1 <0>        -0.0679
      6 C6          0.0021   -0.0041    0.0020 C.ar      1 <0>        -0.0649
      7 C7          1.6006   -2.1031   -0.0252 C.2       1 <0>        -0.1282
      8 C8          2.9586   -2.1428   -0.0387 C.2       1 <0>         0.1236
      9 N1          3.4561   -0.8723   -0.0362 N.pl3     1 <0>        -0.5770
     10 H1          4.3992   -0.6457   -0.0445 H         1 <0>         0.4260
     11 C9          0.6849   -3.2600   -0.0225 C.2       1 <0>         0.2648
     12 N2         -0.6260   -3.2132   -0.0146 N.2       1 <0>        -0.2737
     13 N3         -1.0966   -4.4105   -0.0154 N.2       1 <0>        -0.2789
     14 C10        -0.1062   -5.2698   -0.0238 C.2       1 <0>         0.1211
     15 O1          1.0417   -4.5635   -0.0336 O.3       1 <0>        -0.2047
     16 S1         -0.2497   -7.0259   -0.0273 S.3       1 <0>         0.0904
     17 C11        -2.0397   -7.3199   -0.0176 C.3       1 <0>        -0.0407
     18 C12        -2.3051   -8.8034   -0.0197 C.2       1 <0>         0.2837
     19 N4         -2.4435   -9.5687   -1.1358 N.pl3     1 <0>        -0.5886
     20 H2         -2.3895   -9.2611   -2.0541 H         1 <0>         0.4266
     21 C13        -2.6748  -10.8644   -0.7191 C.ar      1 <0>         0.0589
     22 C14        -2.8909  -12.0676   -1.3771 C.ar      1 <0>        -0.1139
     23 C15        -3.0958  -13.2183   -0.6462 C.ar      1 <0>        -0.0915
     24 C16        -3.0877  -13.1812    0.7410 C.ar      1 <0>        -0.1265
     25 C17        -2.8766  -12.0065    1.4054 C.ar      1 <0>        -0.0571
     26 C18        -2.6662  -10.8275    0.6854 C.ar      1 <0>         0.0433
     27 N5         -2.4296   -9.5398    1.0457 N.2       1 <0>        -0.4591
     28 H3         -0.9611    1.8862    0.0259 H         1 <0>         0.1286
     29 H4          1.1405    3.1625    0.0078 H         1 <0>         0.1306
     30 H5          3.3030    2.0025   -0.0190 H         1 <0>         0.1261
     31 H6         -0.9248   -0.5584    0.0075 H         1 <0>         0.1347
     32 H7          3.5542   -3.0436   -0.0498 H         1 <0>         0.1859
     33 H8         -2.4763   -6.8740    0.8761 H         1 <0>         0.1391
     34 H9         -2.4867   -6.8696   -0.9038 H         1 <0>         0.1236
     35 H10        -2.8989  -12.1018   -2.4566 H         1 <0>         0.1265
     36 H11        -3.2641  -14.1551   -1.1567 H         1 <0>         0.1338
     37 H12        -3.2503  -14.0903    1.3010 H         1 <0>         0.1332
     38 H13        -2.8727  -11.9889    2.4853 H         1 <0>         0.1330
@<TRIPOS>BOND
     1    1    6 ar
     2    1    2 ar
     3    1   28 1
     4    2    3 ar
     5    2   29 1
     6    3    4 ar
     7    3   30 1
     8    4    9 1
     9    4    5 ar
    10    5    6 ar
    11    5    7 1
    12    6   31 1
    13    7    8 2
    14    7   11 1
    15    8    9 1
    16    8   32 1
    17    9   10 1
    18   11   15 1
    19   11   12 2
    20   12   13 1
    21   13   14 2
    22   14   15 1
    23   14   16 1
    24   16   17 1
    25   17   18 1
    26   17   33 1
    27   17   34 1
    28   18   27 2
    29   18   19 1
    30   19   20 1
    31   19   21 1
    32   21   26 ar
    33   21   22 ar
    34   22   23 ar
    35   22   35 1
    36   23   24 ar
    37   23   36 1
    38   24   25 ar
    39   24   37 1
    40   25   26 ar
    41   25   38 1
    42   26   27 1
@<TRIPOS>MOLECULE
ZINC46010724
   45    48     0     0     0
SMALL
USER_CHARGES

@<TRIPOS>ATOM
      1 C1          4.0749   -3.5349   -0.9636 C.2       1 <0>        -0.1594
      2 C2          3.4819   -2.3725   -0.8484 C.2       1 <0>        -0.1853
      3 C3          2.1160   -2.2827   -0.2182 C.3       1 <0>         0.1600
      4 N1          2.1518   -1.3260    0.8907 N.am      1 <0>        -0.5425
      5 C4          2.4496   -1.6171    2.2237 C.ar      1 <0>         0.0596
      6 C5          2.7786   -2.7872    2.8902 C.ar      1 <0>        -0.0786
      7 C6          3.0243   -2.7600    4.2485 C.ar      1 <0>        -0.1186
      8 C7          2.9418   -1.5619    4.9482 C.ar      1 <0>         0.1731
      9 C8          2.6125   -0.3890    4.2854 C.ar      1 <0>        -0.0801
     10 C9          2.3662   -0.4127    2.9221 C.ar      1 <0>         0.0576
     11 O1          2.0311    0.5493    2.0275 O.3       1 <0>        -0.2330
     12 C10         1.9090   -0.0027    0.8102 C.2       1 <0>         0.6356
     13 O2          1.6214    0.5977   -0.2074 O.2       1 <0>        -0.4832
     14 N2          3.1915   -1.5391    6.3267 N.am      1 <0>        -0.6779
     15 C11         3.8107   -0.4785    6.8820 C.2       1 <0>         0.7040
     16 O3          4.0772    0.4941    6.2027 O.2       1 <0>        -0.5498
     17 N3          4.1346   -0.4961    8.1901 N.am      1 <0>        -0.6779
     18 C12         4.6793    0.6440    8.7915 C.ar      1 <0>         0.1599
     19 C13         4.2874    1.9082    8.3707 C.ar      1 <0>        -0.1169
     20 C14         4.8273    3.0289    8.9675 C.ar      1 <0>        -0.0867
     21 C15         5.7593    2.8992    9.9846 C.ar      1 <0>        -0.1099
     22 C16         6.1515    1.6419   10.4057 C.ar      1 <0>        -0.0784
     23 C17         5.6082    0.5151    9.8138 C.ar      1 <0>        -0.1323
     24 C18         7.1699    1.7695   11.5184 C.3       1 <0>        -0.0819
     25 C19         7.6814    3.2233   11.4331 C.3       1 <0>        -0.1215
     26 C20         6.4876    3.9571   10.7862 C.3       1 <0>        -0.0826
     27 H1          3.5849   -4.4289   -0.6070 H         1 <0>         0.1018
     28 H2          5.0519   -3.5999   -1.4193 H         1 <0>         0.1064
     29 H3          3.9720   -1.4786   -1.2050 H         1 <0>         0.1162
     30 H4          1.3935   -1.9488   -0.9630 H         1 <0>         0.1074
     31 H5          1.8238   -3.2634    0.1573 H         1 <0>         0.0991
     32 H6          2.8424   -3.7189    2.3477 H         1 <0>         0.1407
     33 H7          3.2807   -3.6713    4.7683 H         1 <0>         0.1443
     34 H8          2.5482    0.5410    4.8308 H         1 <0>         0.1586
     35 H9          2.9187   -2.2866    6.8814 H         1 <0>         0.4138
     36 H10         3.9901   -1.2991    8.7148 H         1 <0>         0.4093
     37 H11         3.5618    2.0139    7.5777 H         1 <0>         0.1373
     38 H12         4.5223    4.0119    8.6401 H         1 <0>         0.1249
     39 H13         5.9111   -0.4669   10.1457 H         1 <0>         0.1235
     40 H14         6.6987    1.5905   12.4848 H         1 <0>         0.0815
     41 H15         7.9910    1.0700   11.3617 H         1 <0>         0.0754
     42 H16         7.8878    3.6203   12.4269 H         1 <0>         0.0778
     43 H17         8.5651    3.2864   10.7981 H         1 <0>         0.0730
     44 H18         6.8426    4.7514   10.1297 H         1 <0>         0.0754
     45 H19         5.8329    4.3658   11.5559 H         1 <0>         0.0802
@<TRIPOS>BOND
     1    1    2 2
     2    1   27 1
     3    1   28 1
     4    2    3 1
     5    2   29 1
     6    3    4 1
     7    3   30 1
     8    3   31 1
     9    4   12 am
    10    4    5 1
    11    5   10 ar
    12    5    6 ar
    13    6    7 ar
    14    6   32 1
    15    7    8 ar
    16    7   33 1
    17    8    9 ar
    18    8   14 1
    19    9   10 ar
    20    9   34 1
    21   10   11 1
    22   11   12 1
    23   12   13 2
    24   14   15 am
    25   14   35 1
    26   15   16 2
    27   15   17 am
    28   17   18 1
    29   17   36 1
    30   18   23 ar
    31   18   19 ar
    32   19   20 ar
    33   19   37 1
    34   20   21 ar
    35   20   38 1
    36   21   26 1
    37   21   22 ar
    38   22   23 ar
    39   22   24 1
    40   23   39 1
    41   24   25 1
    42   24   40 1
    43   24   41 1
    44   25   26 1
    45   25   42 1
    46   25   43 1
    47   26   44 1
    48   26   45 1
@<TRIPOS>MOLECULE
ZINC08965929
   64    66     0     0     0
SMALL
USER_CHARGES
ethyl 2,4-dimethyl-5-[2-[4-methyl-2,5-dioxo-4-(4-propylphenyl)-imidazolidin-1-yl]propanoyl]-1H-pyrrole-3-carboxylate
@<TRIPOS>ATOM
      1 C1          4.2569    0.0590   -1.4798 C.3       1 <0>        -0.1545
      2 C2          2.9217    0.8059   -1.4635 C.3       1 <0>        -0.1184
      3 C3          2.4902    1.0476   -0.0156 C.3       1 <0>        -0.0850
      4 C4          1.1750    1.7832    0.0004 C.ar      1 <0>        -0.0692
      5 C5         -0.0126    1.0758    0.0080 C.ar      1 <0>        -0.1122
      6 C6         -1.2190    1.7507    0.0173 C.ar      1 <0>        -0.1062
      7 C7         -1.2377    3.1328    0.0294 C.ar      1 <0>        -0.1031
      8 C8         -0.0501    3.8402    0.0223 C.ar      1 <0>        -0.0915
      9 C9          1.1563    3.1654    0.0081 C.ar      1 <0>        -0.1152
     10 C10        -2.5528    3.8685    0.0455 C.3       1 <0>         0.1717
     11 C11        -3.6116    3.0525    0.7603 C.2       1 <0>         0.5375
     12 O1         -4.0276    1.9577    0.4472 O.2       1 <0>        -0.4599
     13 N1         -3.9938    3.7970    1.8167 N.am      1 <0>        -0.5661
     14 C12        -3.3305    4.9578    1.8682 C.2       1 <0>         0.7105
     15 O2         -3.5028    5.7967    2.7305 O.2       1 <0>        -0.5165
     16 N2         -2.4519    5.0928    0.8584 N.am      1 <0>        -0.7180
     17 C13        -5.0094    3.3856    2.7891 C.3       1 <0>         0.1160
     18 H1         -5.3611    2.4827    2.5419 H         1 <0>         0.1113
     19 C14        -4.3846    3.3252    4.1844 C.3       1 <0>        -0.1661
     20 C15        -6.1394    4.3827    2.7874 C.2       1 <0>         0.4093
     21 O3         -5.9904    5.4683    2.2645 O.2       1 <0>        -0.4133
     22 C16        -7.3746    4.0536    3.3955 C.2       1 <0>        -0.0951
     23 C17        -8.4849    4.8671    3.4653 C.2       1 <0>         0.0008
     24 C18        -9.4805    4.1411    4.1535 C.2       1 <0>        -0.2169
     25 C19        -8.9381    2.9097    4.4779 C.2       1 <0>         0.1354
     26 N3         -7.6796    2.8597    4.0170 N.pl3     1 <0>        -0.5162
     27 H2         -7.0779    2.1044    4.1081 H         1 <0>         0.4248
     28 C20        -9.6461    1.8060    5.2206 C.3       1 <0>        -0.1040
     29 C21       -10.8422    4.6064    4.4671 C.2       1 <0>         0.5479
     30 O4        -11.7487    4.4053    3.6831 O.2       1 <0>        -0.4949
     31 O5        -11.0829    5.2553    5.6234 O.3       1 <0>        -0.3501
     32 C22       -12.4485    5.6850    5.8662 C.3       1 <0>         0.0594
     33 C23       -12.5261    6.3979    7.2177 C.3       1 <0>        -0.1534
     34 C24        -8.6116    6.2633    2.9126 C.3       1 <0>        -0.1033
     35 C25        -2.9998    4.2000   -1.3797 C.3       1 <0>        -0.1448
     36 H3          4.1444   -0.8977   -0.9697 H         1 <0>         0.0550
     37 H4          4.5644   -0.1131   -2.5113 H         1 <0>         0.0563
     38 H5          5.0133    0.6558   -0.9700 H         1 <0>         0.0549
     39 H6          2.1654    0.2092   -1.9733 H         1 <0>         0.0637
     40 H7          3.0343    1.7626   -1.9736 H         1 <0>         0.0634
     41 H8          3.2465    1.6443    0.4942 H         1 <0>         0.0740
     42 H9          2.3776    0.0909    0.4944 H         1 <0>         0.0739
     43 H10         0.0021   -0.0041    0.0020 H         1 <0>         0.1266
     44 H11        -2.1469    1.1980    0.0188 H         1 <0>         0.1391
     45 H12        -0.0647    4.9201    0.0283 H         1 <0>         0.1226
     46 H13         2.0841    3.7181    0.0025 H         1 <0>         0.1268
     47 H14        -1.8659    5.8489    0.6973 H         1 <0>         0.4404
     48 H15        -3.5673    2.6040    4.1856 H         1 <0>         0.0782
     49 H16        -4.0012    4.3093    4.4538 H         1 <0>         0.0900
     50 H17        -5.1403    3.0191    4.9079 H         1 <0>         0.0785
     51 H18       -10.1543    1.1564    4.5080 H         1 <0>         0.0912
     52 H19        -8.9188    1.2249    5.7876 H         1 <0>         0.0825
     53 H20       -10.3773    2.2386    5.9035 H         1 <0>         0.0897
     54 H21       -12.7601    6.3686    5.0764 H         1 <0>         0.0717
     55 H22       -13.1066    4.8162    5.8754 H         1 <0>         0.0715
     56 H23       -12.2145    5.7144    8.0075 H         1 <0>         0.0671
     57 H24       -11.8680    7.2667    7.2086 H         1 <0>         0.0678
     58 H25       -13.5512    6.7205    7.4000 H         1 <0>         0.0813
     59 H26        -8.9794    6.2163    1.8875 H         1 <0>         0.0796
     60 H27        -9.3110    6.8339    3.5236 H         1 <0>         0.0679
     61 H28        -7.6363    6.7496    2.9267 H         1 <0>         0.0914
     62 H29        -3.1177    3.2770   -1.9474 H         1 <0>         0.0866
     63 H30        -3.9512    4.7310   -1.3478 H         1 <0>         0.0734
     64 H31        -2.2490    4.8281   -1.8591 H         1 <0>         0.0841
@<TRIPOS>BOND
     1    1    2 1
     2    1   36 1
     3    1   37 1
     4    1   38 1
     5    2    3 1
     6    2   39 1
     7    2   40 1
     8    3    4 1
     9    3   41 1
    10    3   42 1
    11    4    9 ar
    12    4    5 ar
    13    5    6 ar
    14    5   43 1
    15    6    7 ar
    16    6   44 1
    17    7    8 ar
    18    7   10 1
    19    8    9 ar
    20    8   45 1
    21    9   46 1
    22   10   16 1
    23   10   11 1
    24   10   35 1
    25   11   12 2
    26   11   13 am
    27   13   14 am
    28   13   17 1
    29   14   15 2
    30   14   16 am
    31   16   47 1
    32   17   18 1
    33   17   19 1
    34   17   20 1
    35   19   48 1
    36   19   49 1
    37   19   50 1
    38   20   21 2
    39   20   22 1
    40   22   26 1
    41   22   23 2
    42   23   24 1
    43   23   34 1
    44   24   25 2
    45   24   29 1
    46   25   26 1
    47   25   28 1
    48   26   27 1
    49   28   51 1
    50   28   52 1
    51   28   53 1
    52   29   30 2
    53   29   31 1
    54   31   32 1
    55   32   33 1
    56   32   54 1
    57   32   55 1
    58   33   56 1
    59   33   57 1
    60   33   58 1
    61   34   59 1
    62   34   60 1
    63   34   61 1
    64   35   62 1
    65   35   63 1
    66   35   64 1
@<TRIPOS>MOLECULE
ZINC09111804
   46    49     0     0     0
SMALL
USER_CHARGES
1-[2-[[5-[(4-phenoxyphenyl)amino]-1,3,4-thiadiazol-2-yl]sulfanyl]acetyl]imidazolidin-2-one
@<TRIPOS>ATOM
      1 C1         -5.3127    2.6968   -2.6278 C.ar      1 <0>        -0.1532
      2 C2         -5.6105    1.6006   -1.8395 C.ar      1 <0>        -0.0829
      3 C3         -4.6899    1.1403   -0.9182 C.ar      1 <0>        -0.1466
      4 C4         -3.4655    1.7793   -0.7840 C.ar      1 <0>         0.1207
      5 C5         -3.1714    2.8827   -1.5724 C.ar      1 <0>        -0.1937
      6 C6         -4.0935    3.3357   -2.4958 C.ar      1 <0>        -0.0822
      7 O1         -2.5584    1.3288    0.1218 O.3       1 <0>        -0.2573
      8 C7         -1.3891    2.0113    0.2479 C.ar      1 <0>         0.0672
      9 C8         -1.2614    2.9944    1.2185 C.ar      1 <0>        -0.0935
     10 C9         -0.0724    3.6837    1.3513 C.ar      1 <0>        -0.1155
     11 C10         0.9941    3.3966    0.5090 C.ar      1 <0>         0.1588
     12 C11         0.8635    2.4162   -0.4662 C.ar      1 <0>        -0.1308
     13 C12        -0.3262    1.7279   -0.5976 C.ar      1 <0>        -0.1013
     14 N1          2.1997    4.0944    0.6431 N.pl3     1 <0>        -0.6057
     15 C13         2.1972    5.4017    1.1162 C.2       1 <0>         0.3319
     16 N2          1.1907    6.1259    1.5652 N.2       1 <0>        -0.3522
     17 N3          1.4121    7.4141    1.9946 N.2       1 <0>        -0.2713
     18 C14         2.6286    7.9225    1.9445 C.2       1 <0>         0.0326
     19 S1          3.5551    6.5519    1.2709 S.3       1 <0>         0.0261
     20 S2          3.1892    9.5252    2.4155 S.3       1 <0>         0.1152
     21 C15         1.6900   10.3587    3.0054 C.3       1 <0>        -0.1426
     22 C16         2.0335   11.7587    3.4450 C.2       1 <0>         0.5737
     23 O2          3.1767   12.1549    3.3680 O.2       1 <0>        -0.4803
     24 N4          1.0698   12.5702    3.9238 N.am      1 <0>        -0.5784
     25 C17         1.2708   13.9522    4.3844 C.3       1 <0>         0.0821
     26 C18        -0.1366   14.4049    4.8190 C.3       1 <0>         0.0890
     27 N5         -0.9812   13.2299    4.5572 N.am      1 <0>        -0.7241
     28 C19        -0.2241   12.2480    4.0503 C.2       1 <0>         0.6971
     29 O3         -0.6702   11.1616    3.7373 O.2       1 <0>        -0.5434
     30 H1         -6.0337    3.0549   -3.3478 H         1 <0>         0.1250
     31 H2         -6.5636    1.1036   -1.9444 H         1 <0>         0.1312
     32 H3         -4.9230    0.2840   -0.3027 H         1 <0>         0.1324
     33 H4         -2.2208    3.3843   -1.4670 H         1 <0>         0.1275
     34 H5         -3.8635    4.1919   -3.1125 H         1 <0>         0.1252
     35 H6         -2.0908    3.2175    1.8733 H         1 <0>         0.1378
     36 H7          0.0282    4.4461    2.1096 H         1 <0>         0.1536
     37 H8          1.6922    2.1926   -1.1218 H         1 <0>         0.1373
     38 H9         -0.4279    0.9655   -1.3559 H         1 <0>         0.1385
     39 H10         3.0370    3.6660    0.4061 H         1 <0>         0.4328
     40 H11         0.9567   10.4004    2.2000 H         1 <0>         0.1410
     41 H12         1.2740    9.8053    3.8473 H         1 <0>         0.1409
     42 H13         1.9589   13.9776    5.2294 H         1 <0>         0.1033
     43 H14         1.6418   14.5763    3.5713 H         1 <0>         0.1033
     44 H15        -0.1474   14.6551    5.8798 H         1 <0>         0.0960
     45 H16        -0.4669   15.2544    4.2212 H         1 <0>         0.0956
     46 H17        -1.9356   13.1759    4.7215 H         1 <0>         0.4392
@<TRIPOS>BOND
     1    1    6 ar
     2    1    2 ar
     3    1   30 1
     4    2    3 ar
     5    2   31 1
     6    3    4 ar
     7    3   32 1
     8    4    5 ar
     9    4    7 1
    10    5    6 ar
    11    5   33 1
    12    6   34 1
    13    7    8 1
    14    8   13 ar
    15    8    9 ar
    16    9   10 ar
    17    9   35 1
    18   10   11 ar
    19   10   36 1
    20   11   12 ar
    21   11   14 1
    22   12   13 ar
    23   12   37 1
    24   13   38 1
    25   14   15 1
    26   14   39 1
    27   15   19 1
    28   15   16 2
    29   16   17 1
    30   17   18 2
    31   18   19 1
    32   18   20 1
    33   20   21 1
    34   21   22 1
    35   21   40 1
    36   21   41 1
    37   22   23 2
    38   22   24 am
    39   24   28 am
    40   24   25 1
    41   25   26 1
    42   25   42 1
    43   25   43 1
    44   26   27 1
    45   26   44 1
    46   26   45 1
    47   27   28 am
    48   27   46 1
    49   28   29 2
@<TRIPOS>MOLECULE
ZINC32972564
   62    64     0     0     0
SMALL
USER_CHARGES
methyl 3-[[[(3,5-dimethylbenzoyl)amino]-[(1,3,5-trimethylpyrazol-4-yl)methylamino]methylene]amino]benzoate
@<TRIPOS>ATOM
      1 C1          0.2404   -0.3586    0.9108 C.3       1 <0>        -0.1146
      2 C2          0.2608    1.1332    1.1237 C.ar      1 <0>        -0.1013
      3 C3         -0.8347    1.7655    1.6846 C.ar      1 <0>        -0.0966
      4 C4         -0.8222    3.1340    1.8883 C.ar      1 <0>        -0.0981
      5 C5          0.2844    3.8772    1.5334 C.ar      1 <0>        -0.0743
      6 C6          1.3933    3.2456    0.9674 C.ar      1 <0>        -0.1025
      7 C7          1.3738    1.8645    0.7641 C.ar      1 <0>        -0.0615
      8 C8          2.5824    4.0353    0.5851 C.2       1 <0>         0.5456
      9 O1          2.5965    5.2374    0.7632 O.2       1 <0>        -0.5868
     10 N1          3.6513    3.4224    0.0389 N.2       1 <0>        -0.6841
     11 C9          4.7177    4.1694   -0.4123 C.2       1 <0>         0.6896
     12 N2          4.7391    5.4662   -0.2178 N.pl3     1 <0>        -0.6511
     13 C10         5.8528    6.1910   -0.5523 C.ar      1 <0>         0.1107
     14 C11         7.0978    5.8476   -0.0193 C.ar      1 <0>        -0.1124
     15 C12         8.2209    6.5767   -0.3552 C.ar      1 <0>        -0.1075
     16 C13         8.1229    7.6490   -1.2196 C.ar      1 <0>        -0.0670
     17 C14         6.8848    8.0031   -1.7608 C.ar      1 <0>        -0.1025
     18 C15         5.7472    7.2686   -1.4293 C.ar      1 <0>        -0.0636
     19 C16         6.7819    9.1506   -2.6859 C.2       1 <0>         0.5067
     20 O2          5.7045    9.4573   -3.1556 O.2       1 <0>        -0.4978
     21 O3          7.8829    9.8566   -3.0084 O.3       1 <0>        -0.3533
     22 C17         7.7071   10.9708   -3.9227 C.3       1 <0>         0.0325
     23 N3          5.7574    3.5563   -1.0652 N.pl3     1 <0>        -0.7083
     24 C18         5.7239    2.1108   -1.3008 C.3       1 <0>         0.2201
     25 C19         7.0257    1.6726   -1.9208 C.2       1 <0>        -0.2709
     26 C20         7.3036    1.6055   -3.2900 C.2       1 <0>         0.0958
     27 N4          8.5342    1.1860   -3.4371 N.2       1 <0>        -0.2944
     28 N5          9.0757    0.9631   -2.1646 N.pl3     1 <0>        -0.3700
     29 C21         8.1303    1.2690   -1.2515 C.2       1 <0>         0.1139
     30 C22         8.2784    1.1779    0.2455 C.3       1 <0>        -0.1006
     31 C23        10.4291    0.4822   -1.8760 C.3       1 <0>         0.0933
     32 C24         6.3516    1.9594   -4.4033 C.3       1 <0>        -0.0798
     33 C25        -2.0204    3.8141    2.4989 C.3       1 <0>        -0.1160
     34 H1         -0.7220   -0.7650    1.2553 H         1 <0>         0.0644
     35 H2          1.0592   -0.8216    1.4811 H         1 <0>         0.0703
     36 H3          0.3691   -0.5780   -0.1594 H         1 <0>         0.0705
     37 H4         -1.7036    1.1883    1.9643 H         1 <0>         0.1229
     38 H5          0.2930    4.9453    1.6932 H         1 <0>         0.1301
     39 H6          2.2284    1.3697    0.3267 H         1 <0>         0.1393
     40 H7          7.1817    5.0100    0.6574 H         1 <0>         0.1356
     41 H8          9.1808    6.3068    0.0597 H         1 <0>         0.1397
     42 H9          9.0057    8.2150   -1.4782 H         1 <0>         0.1440
     43 H10         4.7881    7.5357   -1.8477 H         1 <0>         0.1448
     44 H11         8.6780   11.4567   -4.0995 H         1 <0>         0.1075
     45 H12         7.0076   11.6979   -3.4844 H         1 <0>         0.0671
     46 H13         7.3025   10.6019   -4.8768 H         1 <0>         0.0670
     47 H14         6.6160    4.1503   -1.4117 H         1 <0>         0.4293
     48 H15         5.5784    1.5868   -0.3447 H         1 <0>         0.0834
     49 H16         4.8940    1.8693   -1.9813 H         1 <0>         0.0795
     50 H17         9.2882    0.8185    0.4928 H         1 <0>         0.0720
     51 H18         7.5313    0.4767    0.6458 H         1 <0>         0.0909
     52 H19         8.1238    2.1720    0.6904 H         1 <0>         0.0856
     53 H20        10.5666    0.4054   -0.7873 H         1 <0>         0.0943
     54 H21        11.1648    1.1876   -2.2897 H         1 <0>         0.0832
     55 H22        10.5720   -0.5075   -2.3343 H         1 <0>         0.0835
     56 H23         6.8486    1.8078   -5.3728 H         1 <0>         0.0743
     57 H24         6.0498    3.0128   -4.3067 H         1 <0>         0.0777
     58 H25         5.4615    1.3160   -4.3430 H         1 <0>         0.0826
     59 H26        -1.8265    4.8937    2.5818 H         1 <0>         0.0664
     60 H27        -2.2082    3.3974    3.4994 H         1 <0>         0.0699
     61 H28        -2.9010    3.6476    1.8611 H         1 <0>         0.0700
     62 H29         3.8629    5.9721    0.2139 H         1 <0>         0.4612
@<TRIPOS>BOND
     1    1    2 1
     2    1   34 1
     3    1   35 1
     4    1   36 1
     5    2    7 ar
     6    2    3 ar
     7    3    4 ar
     8    3   37 1
     9    4    5 ar
    10    4   33 1
    11    5    6 ar
    12    5   38 1
    13    6    7 ar
    14    6    8 1
    15    7   39 1
    16    8    9 2
    17    8   10 1
    18   10   11 2
    19   11   12 1
    20   11   23 1
    21   12   13 1
    22   12   62 1
    23   13   18 ar
    24   13   14 ar
    25   14   15 ar
    26   14   40 1
    27   15   16 ar
    28   15   41 1
    29   16   17 ar
    30   16   42 1
    31   17   18 ar
    32   17   19 1
    33   18   43 1
    34   19   20 2
    35   19   21 1
    36   21   22 1
    37   22   44 1
    38   22   45 1
    39   22   46 1
    40   23   24 1
    41   23   47 1
    42   24   25 1
    43   24   48 1
    44   24   49 1
    45   25   29 2
    46   25   26 1
    47   26   27 2
    48   26   32 1
    49   27   28 1
    50   28   29 1
    51   28   31 1
    52   29   30 1
    53   30   50 1
    54   30   51 1
    55   30   52 1
    56   31   53 1
    57   31   54 1
    58   31   55 1
    59   32   56 1
    60   32   57 1
    61   32   58 1
    62   33   59 1
    63   33   60 1
    64   33   61 1
@<TRIPOS>MOLECULE
ZINC00721765
   59    61     0     0     0
SMALL
USER_CHARGES

@<TRIPOS>ATOM
      1 C1          0.0374    1.3710   -0.0031 C.3       1 <0>         0.0886
      2 N1          0.0708   -0.0936   -0.0015 N.pl3     1 <0>        -0.6333
      3 C2          0.0918   -0.7894    1.2070 C.ar      1 <0>         0.2335
      4 C3          0.1293   -2.1798    1.2065 C.ar      1 <0>        -0.2052
      5 C4          0.1497   -2.8703    2.3981 C.ar      1 <0>        -0.0360
      6 C5          0.1332   -2.1721    3.6088 C.ar      1 <0>        -0.1239
      7 C6          0.0960   -0.7749    3.6054 C.ar      1 <0>        -0.0245
      8 C7          0.0810   -0.0910    2.4099 C.ar      1 <0>        -0.2056
      9 C8          0.1544   -2.9075    4.8860 C.2       1 <0>         0.1285
     10 N2          0.1391   -2.2575    6.0095 N.2       1 <0>        -0.2451
     11 N3          0.1593   -2.9564    7.2235 N.am      1 <0>        -0.5796
     12 C9          0.1433   -2.2815    8.3900 C.2       1 <0>         0.5636
     13 O1          0.1115   -1.0688    8.3887 O.2       1 <0>        -0.5026
     14 C10         0.1651   -3.0334    9.6959 C.3       1 <0>        -0.1532
     15 H1         -0.3660   -3.9853    9.6992 H         1 <0>         0.1438
     16 C11         0.1474   -2.2101   10.9854 C.3       1 <0>        -0.1535
     17 H2          0.1201   -1.1247   10.8892 H         1 <0>         0.1438
     18 C12         1.4288   -2.9265   10.5516 C.3       1 <0>        -0.1149
     19 C13        -0.6027   -2.7774   12.1629 C.2       1 <0>         0.5637
     20 O2         -1.1633   -3.8489   12.0659 O.2       1 <0>        -0.5026
     21 N4         -0.6509   -2.0943   13.3237 N.am      1 <0>        -0.5796
     22 N5         -1.3483   -2.6217   14.4184 N.2       1 <0>        -0.2450
     23 C14        -1.3947   -1.9639   15.5364 C.2       1 <0>         0.1284
     24 C15        -2.1284   -2.5187   16.6881 C.ar      1 <0>        -0.1239
     25 C16        -2.7699   -3.7557   16.5799 C.ar      1 <0>        -0.0241
     26 C17        -3.4543   -4.2713   17.6584 C.ar      1 <0>        -0.2051
     27 C18        -3.5073   -3.5625   18.8540 C.ar      1 <0>         0.2338
     28 C19        -2.8705   -2.3309   18.9652 C.ar      1 <0>        -0.2073
     29 C20        -2.1794   -1.8117   17.8927 C.ar      1 <0>        -0.0357
     30 N6         -4.2012   -4.0877   19.9439 N.pl3     1 <0>        -0.6338
     31 C21        -4.9771   -5.3211   19.7929 C.3       1 <0>         0.0898
     32 C22        -4.1540   -3.4060   21.2398 C.3       1 <0>         0.0853
     33 C23         0.0821   -0.8274   -1.2695 C.3       1 <0>         0.0893
     34 H3          1.0565    1.7577   -0.0078 H         1 <0>         0.0513
     35 H4         -0.4884    1.7215   -0.8912 H         1 <0>         0.0686
     36 H5         -0.4808    1.7236    0.8887 H         1 <0>         0.0713
     37 H6          0.1420   -2.7186    0.2706 H         1 <0>         0.1274
     38 H7          0.1781   -3.9500    2.3969 H         1 <0>         0.1277
     39 H8          0.0827   -0.2321    4.5390 H         1 <0>         0.1339
     40 H9          0.0564    0.9887    2.4064 H         1 <0>         0.1264
     41 H10         0.1828   -3.9871    4.8872 H         1 <0>         0.1174
     42 H11         0.1848   -3.9261    7.2245 H         1 <0>         0.3877
     43 H12         1.7290   -3.8079   11.1183 H         1 <0>         0.1170
     44 H13         2.2445   -2.3123   10.1701 H         1 <0>         0.1170
     45 H14        -0.2027   -1.2376   13.4013 H         1 <0>         0.3878
     46 H15        -0.8956   -1.0100   15.6228 H         1 <0>         0.1174
     47 H16        -2.7295   -4.3065   15.6518 H         1 <0>         0.1340
     48 H17        -3.9505   -5.2269   17.5755 H         1 <0>         0.1261
     49 H18        -2.9141   -1.7831   19.8949 H         1 <0>         0.1291
     50 H19        -1.6811   -0.8577   17.9813 H         1 <0>         0.1278
     51 H20        -4.3428   -6.1790   20.0157 H         1 <0>         0.0511
     52 H21        -5.8221   -5.3053   20.4813 H         1 <0>         0.0686
     53 H22        -5.3439   -5.3965   18.7692 H         1 <0>         0.0709
     54 H23        -3.6081   -2.4681   21.1373 H         1 <0>         0.0800
     55 H24        -5.1692   -3.2002   21.5792 H         1 <0>         0.0583
     56 H25        -3.6497   -4.0423   21.9670 H         1 <0>         0.0550
     57 H26         1.1123   -0.9859   -1.5883 H         1 <0>         0.0510
     58 H27        -0.4093   -1.7911   -1.1359 H         1 <0>         0.0709
     59 H28        -0.4483   -0.2510   -2.0275 H         1 <0>         0.0685
@<TRIPOS>BOND
     1    1    2 1
     2    1   34 1
     3    1   35 1
     4    1   36 1
     5    2    3 1
     6    2   33 1
     7    3    8 ar
     8    3    4 ar
     9    4    5 ar
    10    4   37 1
    11    5    6 ar
    12    5   38 1
    13    6    7 ar
    14    6    9 1
    15    7    8 ar
    16    7   39 1
    17    8   40 1
    18    9   10 2
    19    9   41 1
    20   10   11 1
    21   11   12 am
    22   11   42 1
    23   12   13 2
    24   12   14 1
    25   14   15 1
    26   14   18 1
    27   14   16 1
    28   16   17 1
    29   16   18 1
    30   16   19 1
    31   18   43 1
    32   18   44 1
    33   19   20 2
    34   19   21 am
    35   21   22 1
    36   21   45 1
    37   22   23 2
    38   23   24 1
    39   23   46 1
    40   24   29 ar
    41   24   25 ar
    42   25   26 ar
    43   25   47 1
    44   26   27 ar
    45   26   48 1
    46   27   28 ar
    47   27   30 1
    48   28   29 ar
    49   28   49 1
    50   29   50 1
    51   30   31 1
    52   30   32 1
    53   31   51 1
    54   31   52 1
    55   31   53 1
    56   32   54 1
    57   32   55 1
    58   32   56 1
    59   33   57 1
    60   33   58 1
    61   33   59 1
@<TRIPOS>MOLECULE
ZINC59777964
   50    52     0     0     0
SMALL
USER_CHARGES

@<TRIPOS>ATOM
      1 C1          0.0217    1.4075    0.0642 C.ar      1 <0>        -0.1320
      2 C2          0.1792    0.2490    0.8026 C.ar      1 <0>        -0.0997
      3 C3          1.3805   -0.4319    0.7741 C.ar      1 <0>        -0.1209
      4 C4          2.4306    0.0478    0.0023 C.ar      1 <0>         0.1427
      5 C5          2.2691    1.2112   -0.7386 C.ar      1 <0>        -0.1435
      6 C6          1.0654    1.8877   -0.7054 C.ar      1 <0>        -0.1003
      7 N1          3.6491   -0.6394   -0.0285 N.am      1 <0>        -0.6705
      8 C7          3.6674   -1.9834    0.0703 C.2       1 <0>         0.5149
      9 O1          2.6256   -2.6041    0.0928 O.2       1 <0>        -0.4917
     10 C8          4.9823   -2.7151    0.1527 C.3       1 <0>         0.0437
     11 O2          4.7403   -4.1201    0.2502 O.3       1 <0>        -0.2881
     12 C9          5.8290   -4.9293    0.3333 C.ar      1 <0>         0.1462
     13 C10         7.1041   -4.3808    0.3271 C.ar      1 <0>        -0.2186
     14 C11         8.2118   -5.2023    0.4120 C.ar      1 <0>        -0.0592
     15 C12         8.0541   -6.5719    0.5030 C.ar      1 <0>        -0.1518
     16 C13         6.7807   -7.1262    0.5097 C.ar      1 <0>         0.1798
     17 C14         5.6666   -6.3022    0.4302 C.ar      1 <0>        -0.1695
     18 N2          6.6209   -8.5132    0.6019 N.am      1 <0>        -0.6651
     19 C15         7.4710   -9.2410    1.3530 C.2       1 <0>         0.5367
     20 O3          8.4230   -8.7067    1.8814 O.2       1 <0>        -0.4932
     21 C16         7.2387  -10.7186    1.5363 C.3       1 <0>        -0.1666
     22 S1          8.5433  -11.4098    2.5903 S.3       1 <0>         0.0184
     23 C17         8.1356  -13.1199    2.7072 C.ar      1 <0>        -0.0581
     24 C18         7.0168  -13.6159    2.0486 C.ar      1 <0>        -0.1417
     25 C19         6.7003  -14.9567    2.1425 C.ar      1 <0>        -0.0288
     26 C20         7.4951  -15.8057    2.8910 C.ar      1 <0>        -0.0607
     27 C21         8.6090  -15.3156    3.5482 C.ar      1 <0>        -0.0298
     28 C22         8.9351  -13.9772    3.4537 C.ar      1 <0>        -0.0999
     29 N3          7.1526  -17.2422    2.9893 N.pl3     1 <0>         0.0347
     30 O4          6.1790  -17.6721    2.4157 O.2       1 <0>        -0.1595
     31 O5          7.8464  -17.9857    3.6431 O.3       1 <0>        -0.1566
     32 H1         -0.9200    1.9359    0.0849 H         1 <0>         0.1252
     33 H2         -0.6379   -0.1235    1.4026 H         1 <0>         0.1274
     34 H3          1.5031   -1.3362    1.3516 H         1 <0>         0.1338
     35 H4          3.0840    1.5870   -1.3395 H         1 <0>         0.1266
     36 H5          0.9391    2.7926   -1.2813 H         1 <0>         0.1281
     37 H6          4.4806   -0.1485   -0.1209 H         1 <0>         0.4132
     38 H7          5.5696   -2.5088   -0.7420 H         1 <0>         0.0992
     39 H8          5.5306   -2.3789    1.0328 H         1 <0>         0.1004
     40 H9          7.2305   -3.3106    0.2553 H         1 <0>         0.1309
     41 H10         9.2028   -4.7730    0.4069 H         1 <0>         0.1333
     42 H11         8.9216   -7.2118    0.5686 H         1 <0>         0.1422
     43 H12         4.6752   -6.7304    0.4397 H         1 <0>         0.1376
     44 H13         5.8984   -8.9509    0.1253 H         1 <0>         0.4163
     45 H14         6.2686  -10.8783    2.0070 H         1 <0>         0.1288
     46 H15         7.2567  -11.2125    0.5647 H         1 <0>         0.1285
     47 H16         6.3955  -12.9534    1.4643 H         1 <0>         0.1445
     48 H17         5.8309  -15.3427    1.6313 H         1 <0>         0.1574
     49 H18         9.2272  -15.9815    4.1320 H         1 <0>         0.1605
     50 H19         9.8080  -13.5961    3.9629 H         1 <0>         0.1544
@<TRIPOS>BOND
     1    1    6 ar
     2    1    2 ar
     3    1   32 1
     4    2    3 ar
     5    2   33 1
     6    3    4 ar
     7    3   34 1
     8    4    5 ar
     9    4    7 1
    10    5    6 ar
    11    5   35 1
    12    6   36 1
    13    7    8 am
    14    7   37 1
    15    8    9 2
    16    8   10 1
    17   10   11 1
    18   10   38 1
    19   10   39 1
    20   11   12 1
    21   12   17 ar
    22   12   13 ar
    23   13   14 ar
    24   13   40 1
    25   14   15 ar
    26   14   41 1
    27   15   16 ar
    28   15   42 1
    29   16   17 ar
    30   16   18 1
    31   17   43 1
    32   18   19 am
    33   18   44 1
    34   19   20 2
    35   19   21 1
    36   21   22 1
    37   21   45 1
    38   21   46 1
    39   22   23 1
    40   23   28 ar
    41   23   24 ar
    42   24   25 ar
    43   24   47 1
    44   25   26 ar
    45   25   48 1
    46   26   27 ar
    47   26   29 1
    48   27   28 ar
    49   27   49 1
    50   28   50 1
    51   29   30 2
    52   29   31 1
@<TRIPOS>MOLECULE
ZINC10021272
   60    62     0     0     0
SMALL
USER_CHARGES
(3-fluorophenyl)carbamoylmethyl 2-cyclohexylcarbonylamino-4,5-dimethoxy-benzoate
@<TRIPOS>ATOM
      1 C1          3.7037   -2.1341   -0.3227 C.3       1 <0>         0.0227
      2 O1          3.7516   -0.7153   -0.1590 O.3       1 <0>        -0.3025
      3 C2          2.5611   -0.0584   -0.1115 C.ar      1 <0>         0.0693
      4 C3          1.3812   -0.7645   -0.2201 C.ar      1 <0>        -0.0938
      5 C4          0.1566   -0.0889   -0.1713 C.ar      1 <0>        -0.1766
      6 C5          0.1366    1.3062   -0.0118 C.ar      1 <0>         0.2362
      7 C6          1.3288    2.0046    0.0961 C.ar      1 <0>        -0.2127
      8 C7          2.5371    1.3281    0.0464 C.ar      1 <0>         0.1730
      9 O2          3.7026    2.0168    0.1526 O.3       1 <0>        -0.2940
     10 C8          3.6066    3.4336    0.3122 C.3       1 <0>         0.0211
     11 N1         -1.0791    1.9874    0.0320 N.am      1 <0>        -0.6596
     12 C9         -1.1378    3.2849   -0.3279 C.2       1 <0>         0.5185
     13 O3         -0.1578    3.8317   -0.7877 O.2       1 <0>        -0.5157
     14 C10        -2.4214    4.0563   -0.1591 C.3       1 <0>        -0.1033
     15 C11        -3.5269    3.3936   -0.9834 C.3       1 <0>        -0.1136
     16 C12        -4.8300    4.1768   -0.8120 C.3       1 <0>        -0.1172
     17 C13        -4.6277    5.6151   -1.2929 C.3       1 <0>        -0.1238
     18 C14        -3.5222    6.2778   -0.4686 C.3       1 <0>        -0.1201
     19 C15        -2.2190    5.4946   -0.6400 C.3       1 <0>        -0.1002
     20 C16        -1.1049   -0.8372   -0.2871 C.2       1 <0>         0.5297
     21 O4         -2.1625   -0.2407   -0.3424 O.2       1 <0>        -0.5164
     22 O5         -1.0877   -2.1843   -0.3318 O.3       1 <0>        -0.3247
     23 C17        -2.3697   -2.8564   -0.4464 C.3       1 <0>         0.0512
     24 C18        -2.1537   -4.3475   -0.4818 C.2       1 <0>         0.5152
     25 O6         -1.0300   -4.7992   -0.4168 O.2       1 <0>        -0.4875
     26 N2         -3.2093   -5.1790   -0.5857 N.am      1 <0>        -0.6657
     27 C19        -3.0211   -6.5627   -0.4986 C.ar      1 <0>         0.1769
     28 C20        -3.9239   -7.4272   -1.1046 C.ar      1 <0>        -0.1586
     29 C21        -3.7339   -8.7925   -1.0218 C.ar      1 <0>        -0.0665
     30 C22        -2.6516   -9.3011   -0.3277 C.ar      1 <0>        -0.1706
     31 C23        -1.7520   -8.4430    0.2824 C.ar      1 <0>         0.1232
     32 C24        -1.9351   -7.0742    0.1984 C.ar      1 <0>        -0.1692
     33 F1         -0.6956   -8.9426    0.9603 F         1 <0>        -0.1339
     34 H1          3.1574   -2.5776    0.5097 H         1 <0>         0.0583
     35 H2          3.1988   -2.3750   -1.2582 H         1 <0>         0.0573
     36 H3          4.7183   -2.5318   -0.3446 H         1 <0>         0.1040
     37 H4          1.4024   -1.8373   -0.3422 H         1 <0>         0.1575
     38 H5          1.3160    3.0776    0.2184 H         1 <0>         0.1710
     39 H6          3.0906    3.8619   -0.5470 H         1 <0>         0.0652
     40 H7          3.0489    3.6599    1.2210 H         1 <0>         0.0583
     41 H8          4.6073    3.8596    0.3845 H         1 <0>         0.1060
     42 H9         -1.8826    1.5275    0.3215 H         1 <0>         0.4248
     43 H10        -2.7063    4.0617    0.8930 H         1 <0>         0.1027
     44 H11        -3.2420    3.3882   -2.0355 H         1 <0>         0.0695
     45 H12        -3.6710    2.3690   -0.6408 H         1 <0>         0.0720
     46 H13        -5.1149    4.1822    0.2401 H         1 <0>         0.0652
     47 H14        -5.6176    3.7047   -1.3992 H         1 <0>         0.0675
     48 H15        -5.5561    6.1730   -1.1708 H         1 <0>         0.0644
     49 H16        -4.3428    5.6097   -2.3450 H         1 <0>         0.0634
     50 H17        -3.8071    6.2832    0.5835 H         1 <0>         0.0634
     51 H18        -3.3780    7.3024   -0.8112 H         1 <0>         0.0676
     52 H19        -1.4314    5.9667   -0.0528 H         1 <0>         0.0706
     53 H20        -1.9341    5.4892   -1.6921 H         1 <0>         0.0717
     54 H21        -2.9924   -2.5997    0.4106 H         1 <0>         0.1115
     55 H22        -2.8654   -2.5392   -1.3638 H         1 <0>         0.1101
     56 H23        -4.0995   -4.8181   -0.7208 H         1 <0>         0.4181
     57 H24        -4.7722   -7.0315   -1.6433 H         1 <0>         0.1349
     58 H25        -4.4340   -9.4642   -1.4963 H         1 <0>         0.1399
     59 H26        -2.5076  -10.3694   -0.2610 H         1 <0>         0.1384
     60 H27        -1.2338   -6.4046    0.6741 H         1 <0>         0.1559
@<TRIPOS>BOND
     1    1    2 1
     2    1   34 1
     3    1   35 1
     4    1   36 1
     5    2    3 1
     6    3    8 ar
     7    3    4 ar
     8    4    5 ar
     9    4   37 1
    10    5    6 ar
    11    5   20 1
    12    6    7 ar
    13    6   11 1
    14    7    8 ar
    15    7   38 1
    16    8    9 1
    17    9   10 1
    18   10   39 1
    19   10   40 1
    20   10   41 1
    21   11   12 am
    22   11   42 1
    23   12   13 2
    24   12   14 1
    25   14   19 1
    26   14   15 1
    27   14   43 1
    28   15   16 1
    29   15   44 1
    30   15   45 1
    31   16   17 1
    32   16   46 1
    33   16   47 1
    34   17   18 1
    35   17   48 1
    36   17   49 1
    37   18   19 1
    38   18   50 1
    39   18   51 1
    40   19   52 1
    41   19   53 1
    42   20   21 2
    43   20   22 1
    44   22   23 1
    45   23   24 1
    46   23   54 1
    47   23   55 1
    48   24   25 2
    49   24   26 am
    50   26   27 1
    51   26   56 1
    52   27   32 ar
    53   27   28 ar
    54   28   29 ar
    55   28   57 1
    56   29   30 ar
    57   29   58 1
    58   30   31 ar
    59   30   59 1
    60   31   32 ar
    61   31   33 1
    62   32   60 1
@<TRIPOS>MOLECULE
ZINC14742431
   63    66     0     0     0
SMALL
USER_CHARGES
methyl 5-(isopropylamino)-1-phenethyl-3-[[(2R)-tetrahydrofuran-2-carbonyl]amino]pyrrolo[5,4-b]pyridine-2-carboxylate
@<TRIPOS>ATOM
      1 C1         -2.1773   -0.8102   -2.3049 C.3       1 <0>        -0.1726
      2 C2         -1.6373    0.1476   -3.3688 C.3       1 <0>         0.1435
      3 C3         -2.4317   -0.0290   -4.6644 C.3       1 <0>        -0.1607
      4 N1         -1.7728    1.5279   -2.8971 N.pl3     1 <0>        -0.7384
      5 C4         -0.7829    2.0895   -2.0814 C.ar      1 <0>         0.1381
      6 C5         -0.9062    3.3937   -1.6252 C.ar      1 <0>        -0.0870
      7 C6          0.1145    3.9072   -0.8182 C.ar      1 <0>        -0.1113
      8 C7          0.3371    5.2004   -0.1693 C.2       1 <0>         0.1738
      9 C8          1.5391    5.1012    0.5008 C.2       1 <0>         0.0197
     10 N2          2.0623    3.8315    0.3017 N.pl3     1 <0>        -0.4440
     11 C9          1.2172    3.0938   -0.4925 C.ar      1 <0>         0.2823
     12 N3          1.2797    1.8499   -0.9528 N.ar      1 <0>        -0.4624
     13 C10         0.3339    1.3429   -1.7137 C.ar      1 <0>         0.1095
     14 C11         3.3296    3.3486    0.8558 C.3       1 <0>         0.1178
     15 C12         4.4635    3.6505   -0.1260 C.3       1 <0>        -0.0901
     16 C13         5.7671    3.1538    0.4440 C.ar      1 <0>        -0.0818
     17 C14         6.5416    3.9886    1.2278 C.ar      1 <0>        -0.1112
     18 C15         7.7352    3.5315    1.7543 C.ar      1 <0>        -0.1196
     19 C16         8.1591    2.2427    1.4891 C.ar      1 <0>        -0.1211
     20 C17         7.3869    1.4095    0.7014 C.ar      1 <0>        -0.1182
     21 C18         6.1912    1.8652    0.1785 C.ar      1 <0>        -0.1122
     22 C19         2.1420    6.1299    1.2684 C.2       1 <0>         0.5353
     23 O1          1.5898    7.2083    1.3808 O.2       1 <0>        -0.4923
     24 O2          3.3282    5.9128    1.8742 O.3       1 <0>        -0.3490
     25 C20         3.8774    6.9932    2.6313 C.3       1 <0>         0.0323
     26 N4         -0.4991    6.3109   -0.2182 N.am      1 <0>        -0.6452
     27 C21        -1.8050    6.1852    0.0908 C.2       1 <0>         0.5157
     28 O3         -2.2190    5.1484    0.5644 O.2       1 <0>        -0.4894
     29 C22        -2.7506    7.3332   -0.1522 C.3       1 <0>         0.0639
     30 H1         -2.3900    8.2251    0.3603 H         1 <0>         0.1001
     31 C23        -2.8641    7.6076   -1.6643 C.3       1 <0>        -0.1478
     32 C24        -4.3723    7.4369   -1.9688 C.3       1 <0>        -0.1534
     33 C25        -5.0096    7.6263   -0.5687 C.3       1 <0>         0.0430
     34 O4         -4.0639    6.9936    0.3233 O.3       1 <0>        -0.3457
     35 H2         -3.2288   -0.5914   -2.1191 H         1 <0>         0.0595
     36 H3         -2.0765   -1.8373   -2.6559 H         1 <0>         0.0656
     37 H4         -1.6114   -0.6845   -1.3819 H         1 <0>         0.0589
     38 H5         -0.5858   -0.0713   -3.5546 H         1 <0>         0.0791
     39 H6         -2.0470    0.6534   -5.4224 H         1 <0>         0.0619
     40 H7         -2.3309   -1.0560   -5.0154 H         1 <0>         0.0728
     41 H8         -3.4832    0.1899   -4.4786 H         1 <0>         0.0609
     42 H9         -2.5484    2.0529   -3.1499 H         1 <0>         0.4002
     43 H10        -1.7625    3.9966   -1.8896 H         1 <0>         0.1294
     44 H11         0.4276    0.3259   -2.0648 H         1 <0>         0.1636
     45 H12         3.5263    3.8500    1.8035 H         1 <0>         0.1056
     46 H13         3.2679    2.2728    1.0199 H         1 <0>         0.0975
     47 H14         4.2668    3.1491   -1.0736 H         1 <0>         0.0787
     48 H15         4.5252    4.7263   -0.2901 H         1 <0>         0.0771
     49 H16         6.2124    4.9968    1.4316 H         1 <0>         0.1217
     50 H17         8.3383    4.1823    2.3699 H         1 <0>         0.1218
     51 H18         9.0933    1.8867    1.8976 H         1 <0>         0.1213
     52 H19         7.7181    0.4026    0.4942 H         1 <0>         0.1224
     53 H20         5.5881    1.2143   -0.4372 H         1 <0>         0.1233
     54 H21         4.0349    7.8514    1.9781 H         1 <0>         0.0642
     55 H22         3.1866    7.2658    3.4291 H         1 <0>         0.0640
     56 H23         4.8295    6.6864    3.0642 H         1 <0>         0.1048
     57 H24        -0.1425    7.1757   -0.4747 H         1 <0>         0.4166
     58 H25        -2.5412    8.6232   -1.8931 H         1 <0>         0.0910
     59 H26        -2.2766    6.8833   -2.2286 H         1 <0>         0.0826
     60 H27        -4.7187    8.2045   -2.6609 H         1 <0>         0.0873
     61 H28        -4.5800    6.4409   -2.3599 H         1 <0>         0.0801
     62 H29        -5.1081    8.6857   -0.3318 H         1 <0>         0.0670
     63 H30        -5.9794    7.1312   -0.5183 H         1 <0>         0.0995
@<TRIPOS>BOND
     1    1    2 1
     2    1   35 1
     3    1   36 1
     4    1   37 1
     5    2    3 1
     6    2    4 1
     7    2   38 1
     8    3   39 1
     9    3   40 1
    10    3   41 1
    11    4    5 1
    12    4   42 1
    13    5   13 ar
    14    5    6 ar
    15    6    7 ar
    16    6   43 1
    17    7   11 ar
    18    7    8 1
    19    8    9 2
    20    8   26 1
    21    9   10 1
    22    9   22 1
    23   10   11 1
    24   10   14 1
    25   11   12 ar
    26   12   13 ar
    27   13   44 1
    28   14   15 1
    29   14   45 1
    30   14   46 1
    31   15   16 1
    32   15   47 1
    33   15   48 1
    34   16   21 ar
    35   16   17 ar
    36   17   18 ar
    37   17   49 1
    38   18   19 ar
    39   18   50 1
    40   19   20 ar
    41   19   51 1
    42   20   21 ar
    43   20   52 1
    44   21   53 1
    45   22   23 2
    46   22   24 1
    47   24   25 1
    48   25   54 1
    49   25   55 1
    50   25   56 1
    51   26   27 am
    52   26   57 1
    53   27   28 2
    54   27   29 1
    55   29   30 1
    56   29   34 1
    57   29   31 1
    58   31   32 1
    59   31   58 1
    60   31   59 1
    61   32   33 1
    62   32   60 1
    63   32   61 1
    64   33   34 1
    65   33   62 1
    66   33   63 1
@<TRIPOS>MOLECULE
ZINC27528638
   61    64     0     0     0
SMALL
USER_CHARGES
1,5-dimethyl-4-[2-[4-[(3-nitrophenyl)methylamino]phenyl]ethylamino]-2-phenyl-pyrazol-3-one
@<TRIPOS>ATOM
      1 C1          2.2265   -0.1049    1.6631 C.3       1 <0>        -0.0806
      2 C2          2.3076    1.0604    0.7109 C.2       1 <0>         0.0813
      3 C3          1.2761    1.5894    0.0194 C.2       1 <0>         0.0007
      4 C4          1.7733    2.6703   -0.7532 C.2       1 <0>         0.5316
      5 O1          1.1215    3.3814   -1.4967 O.2       1 <0>        -0.5301
      6 N1          3.0972    2.7690   -0.5168 N.am      1 <0>        -0.3600
      7 N2          3.4448    1.7644    0.3959 N.pl3     1 <0>        -0.4067
      8 C5          4.7868    1.5120    0.9266 C.3       1 <0>         0.1048
      9 C6          3.9674    3.7070   -1.0809 C.ar      1 <0>         0.1520
     10 C7          4.8561    4.4055   -0.2738 C.ar      1 <0>        -0.1322
     11 C8          5.7185    5.3267   -0.8350 C.ar      1 <0>        -0.1027
     12 C9          5.6894    5.5629   -2.1973 C.ar      1 <0>        -0.1192
     13 C10         4.8019    4.8732   -3.0029 C.ar      1 <0>        -0.0987
     14 C11         3.9411    3.9462   -2.4488 C.ar      1 <0>        -0.1040
     15 N3         -0.0635    1.1483    0.0622 N.pl3     1 <0>        -0.7429
     16 C12        -0.9144    1.9634   -0.8150 C.3       1 <0>         0.1362
     17 C13        -2.3560    1.4562   -0.7420 C.3       1 <0>        -0.0850
     18 C14        -3.2289    2.2923   -1.6419 C.ar      1 <0>        -0.1327
     19 C15        -3.8511    3.4224   -1.1437 C.ar      1 <0>        -0.0641
     20 C16        -4.6472    4.1940   -1.9671 C.ar      1 <0>        -0.1980
     21 C17        -4.8317    3.8276   -3.2943 C.ar      1 <0>         0.2160
     22 C18        -4.2098    2.6887   -3.7900 C.ar      1 <0>        -0.1913
     23 C19        -3.4105    1.9247   -2.9626 C.ar      1 <0>        -0.0642
     24 N4         -5.6411    4.6024   -4.1282 N.pl3     1 <0>        -0.7584
     25 C20        -6.2962    5.8032   -3.6037 C.3       1 <0>         0.1703
     26 C21        -7.1048    6.4526   -4.6971 C.ar      1 <0>        -0.1021
     27 C22        -8.4269    6.0945   -4.8849 C.ar      1 <0>        -0.0492
     28 C23        -9.1686    6.6903   -5.8875 C.ar      1 <0>        -0.1166
     29 C24        -8.5884    7.6445   -6.7026 C.ar      1 <0>        -0.0486
     30 C25        -7.2667    8.0025   -6.5149 C.ar      1 <0>        -0.0447
     31 C26        -6.5263    7.4102   -5.5086 C.ar      1 <0>        -0.0373
     32 N5         -6.6456    9.0244   -7.3872 N.pl3     1 <0>         0.0255
     33 O2         -7.2994    9.5497   -8.2705 O.2       1 <0>        -0.1554
     34 O3         -5.4809    9.3399   -7.2218 O.3       1 <0>        -0.1550
     35 H1          1.1883   -0.4646    1.7147 H         1 <0>         0.0839
     36 H2          2.5538    0.2154    2.6633 H         1 <0>         0.0754
     37 H3          2.8783   -0.9160    1.3063 H         1 <0>         0.0754
     38 H4          5.4942    2.2345    0.4935 H         1 <0>         0.0878
     39 H5          5.0989    0.4905    0.6636 H         1 <0>         0.0772
     40 H6          4.7748    1.6215    2.0211 H         1 <0>         0.0767
     41 H7          4.8758    4.2253    0.7909 H         1 <0>         0.1264
     42 H8          6.4131    5.8667   -0.2087 H         1 <0>         0.1314
     43 H9          6.3616    6.2873   -2.6330 H         1 <0>         0.1297
     44 H10         4.7822    5.0595   -4.0665 H         1 <0>         0.1330
     45 H11         3.2484    3.4077   -3.0786 H         1 <0>         0.1308
     46 H12        -0.5019    0.3212    0.6399 H         1 <0>         0.4311
     47 H13        -0.8781    3.0133   -0.4887 H         1 <0>         0.0572
     48 H14        -0.5514    1.8886   -1.8507 H         1 <0>         0.0571
     49 H15        -2.3923    0.4063   -1.0683 H         1 <0>         0.0702
     50 H16        -2.7190    1.5310    0.2937 H         1 <0>         0.0700
     51 H17        -3.7110    3.7040   -0.1105 H         1 <0>         0.1185
     52 H18        -5.1292    5.0789   -1.5785 H         1 <0>         0.1173
     53 H19        -4.3509    2.4013   -4.8215 H         1 <0>         0.1178
     54 H20        -2.9264    1.0393   -3.3475 H         1 <0>         0.1190
     55 H21        -5.7866    4.3109   -5.1788 H         1 <0>         0.4188
     56 H22        -6.9606    5.5249   -2.7723 H         1 <0>         0.0753
     57 H23        -5.5335    6.5091   -3.2431 H         1 <0>         0.0734
     58 H24        -8.8802    5.3493   -4.2479 H         1 <0>         0.1456
     59 H25       -10.2015    6.4108   -6.0339 H         1 <0>         0.1513
     60 H26        -9.1680    8.1104   -7.4857 H         1 <0>         0.1559
     61 H27        -5.4948    7.6932   -5.3591 H         1 <0>         0.1552
@<TRIPOS>BOND
     1    1    2 1
     2    1   35 1
     3    1   36 1
     4    1   37 1
     5    2    7 1
     6    2    3 2
     7    3    4 1
     8    3   15 1
     9    4    5 2
    10    4    6 am
    11    6    7 1
    12    6    9 1
    13    7    8 1
    14    8   38 1
    15    8   39 1
    16    8   40 1
    17    9   14 ar
    18    9   10 ar
    19   10   11 ar
    20   10   41 1
    21   11   12 ar
    22   11   42 1
    23   12   13 ar
    24   12   43 1
    25   13   14 ar
    26   13   44 1
    27   14   45 1
    28   15   16 1
    29   15   46 1
    30   16   17 1
    31   16   47 1
    32   16   48 1
    33   17   18 1
    34   17   49 1
    35   17   50 1
    36   18   23 ar
    37   18   19 ar
    38   19   20 ar
    39   19   51 1
    40   20   21 ar
    41   20   52 1
    42   21   22 ar
    43   21   24 1
    44   22   23 ar
    45   22   53 1
    46   23   54 1
    47   24   25 1
    48   24   55 1
    49   25   26 1
    50   25   56 1
    51   25   57 1
    52   26   31 ar
    53   26   27 ar
    54   27   28 ar
    55   27   58 1
    56   28   29 ar
    57   28   59 1
    58   29   30 ar
    59   29   60 1
    60   30   31 ar
    61   30   32 1
    62   31   61 1
    63   32   33 2
    64   32   34 1
@<TRIPOS>MOLECULE
ZINC39843467
   57    59     0     0     0
SMALL
USER_CHARGES

@<TRIPOS>ATOM
      1 C1          3.1458   -5.1551   -1.3471 C.3       1 <0>        -0.1530
      2 C2          2.3695   -4.4879   -0.2100 C.3       1 <0>         0.0611
      3 O1          1.0189   -4.9548   -0.2173 O.3       1 <0>        -0.3488
      4 C3          0.1957   -4.4606    0.7282 C.2       1 <0>         0.5107
      5 O2          0.6133   -3.6554    1.5367 O.2       1 <0>        -0.5061
      6 C4         -1.2118   -4.8971    0.7817 C.ar      1 <0>        -0.1439
      7 C5         -1.6924   -5.8278   -0.1442 C.ar      1 <0>        -0.0377
      8 C6         -3.0068   -6.2333   -0.0910 C.ar      1 <0>        -0.1353
      9 C7         -3.8568   -5.7176    0.8824 C.ar      1 <0>         0.1832
     10 C8         -3.3820   -4.7908    1.8053 C.ar      1 <0>        -0.1567
     11 C9         -2.0673   -4.3854    1.7620 C.ar      1 <0>        -0.0311
     12 N1         -5.1876   -6.1303    0.9330 N.am      1 <0>        -0.6696
     13 C10        -5.5156   -7.3913    0.5886 C.2       1 <0>         0.5192
     14 O3         -4.6453   -8.1943    0.3266 O.2       1 <0>        -0.5008
     15 C11        -6.9639   -7.8037    0.5292 C.3       1 <0>        -0.1199
     16 C12        -7.0590   -9.2739    0.1164 C.3       1 <0>        -0.0850
     17 H1         -6.4601   -9.9052    0.7727 H         1 <0>         0.1673
     18 C13        -8.5052   -9.7412    0.0713 C.2       1 <0>         0.5241
     19 O4         -9.2101   -9.7514    1.0579 O.2       1 <0>        -0.4786
     20 N2         -8.9458  -10.1352   -1.1112 N.am      1 <0>        -0.6752
     21 C14        -8.1520  -10.1270   -2.2373 C.2       1 <0>         0.3614
     22 N3         -8.4735  -10.4926   -3.4629 N.2       1 <0>        -0.3317
     23 N4         -9.6626  -10.9235   -3.7164 N.2       1 <0>        -0.3757
     24 C15        -9.9822  -11.2869   -4.9345 C.2       1 <0>         0.1841
     25 C16        -9.0819  -11.0593   -5.9983 C.2       1 <0>        -0.1396
     26 C17        -9.3709  -11.5156   -7.2378 C.2       1 <0>        -0.0596
     27 C18       -10.6939  -12.0936   -7.5188 C.ar      1 <0>        -0.0700
     28 C19       -10.8058  -13.2430   -8.3086 C.ar      1 <0>        -0.1022
     29 C20       -12.0496  -13.7786   -8.5674 C.ar      1 <0>        -0.1175
     30 C21       -13.1856  -13.1823   -8.0482 C.ar      1 <0>        -0.1140
     31 C22       -13.0835  -12.0447   -7.2663 C.ar      1 <0>        -0.1178
     32 C23       -11.8466  -11.5003   -6.9931 C.ar      1 <0>        -0.1145
     33 C24        -7.7990  -10.3079   -5.7520 C.3       1 <0>        -0.1009
     34 S1         -6.5836   -9.5038   -1.6469 S.3       1 <0>         0.0156
     35 H2          4.1760   -4.7991   -1.3416 H         1 <0>         0.0809
     36 H3          3.1344   -6.2363   -1.2094 H         1 <0>         0.0676
     37 H4          2.6802   -4.9053   -2.3005 H         1 <0>         0.0674
     38 H5          2.8351   -4.7378    0.7433 H         1 <0>         0.0689
     39 H6          2.3810   -3.4067   -0.3477 H         1 <0>         0.0690
     40 H7         -1.0334   -6.2279   -0.9005 H         1 <0>         0.1437
     41 H8         -3.3787   -6.9523   -0.8060 H         1 <0>         0.1455
     42 H9         -4.0448   -4.3921    2.5591 H         1 <0>         0.1384
     43 H10        -1.6982   -3.6696    2.4815 H         1 <0>         0.1435
     44 H11        -5.8773   -5.5098    1.2160 H         1 <0>         0.4177
     45 H12        -7.4198   -7.6716    1.5105 H         1 <0>         0.1315
     46 H13        -7.4877   -7.1867   -0.2008 H         1 <0>         0.1186
     47 H14        -9.8627  -10.4421   -1.1889 H         1 <0>         0.4216
     48 H15       -10.9341  -11.7604   -5.1246 H         1 <0>         0.1724
     49 H16        -8.6303  -11.4556   -8.0216 H         1 <0>         0.1327
     50 H17        -9.9203  -13.7092   -8.7147 H         1 <0>         0.1266
     51 H18       -12.1377  -14.6656   -9.1772 H         1 <0>         0.1255
     52 H19       -14.1571  -13.6067   -8.2546 H         1 <0>         0.1240
     53 H20       -13.9747  -11.5849   -6.8654 H         1 <0>         0.1260
     54 H21       -11.7681  -10.6157   -6.3785 H         1 <0>         0.1273
     55 H22        -7.0422  -10.9953   -5.3740 H         1 <0>         0.0716
     56 H23        -7.4530   -9.8641   -6.6855 H         1 <0>         0.0534
     57 H24        -7.9740   -9.5209   -5.0184 H         1 <0>         0.0851
@<TRIPOS>BOND
     1    1    2 1
     2    1   35 1
     3    1   36 1
     4    1   37 1
     5    2    3 1
     6    2   38 1
     7    2   39 1
     8    3    4 1
     9    4    5 2
    10    4    6 1
    11    6   11 ar
    12    6    7 ar
    13    7    8 ar
    14    7   40 1
    15    8    9 ar
    16    8   41 1
    17    9   10 ar
    18    9   12 1
    19   10   11 ar
    20   10   42 1
    21   11   43 1
    22   12   13 am
    23   12   44 1
    24   13   14 2
    25   13   15 1
    26   15   16 1
    27   15   45 1
    28   15   46 1
    29   16   17 1
    30   16   34 1
    31   16   18 1
    32   18   19 2
    33   18   20 am
    34   20   21 1
    35   20   47 1
    36   21   22 2
    37   21   34 1
    38   22   23 1
    39   23   24 2
    40   24   25 1
    41   24   48 1
    42   25   26 2
    43   25   33 1
    44   26   27 1
    45   26   49 1
    46   27   32 ar
    47   27   28 ar
    48   28   29 ar
    49   28   50 1
    50   29   30 ar
    51   29   51 1
    52   30   31 ar
    53   30   52 1
    54   31   32 ar
    55   31   53 1
    56   32   54 1
    57   33   55 1
    58   33   56 1
    59   33   57 1
@<TRIPOS>MOLECULE
ZINC60081549
   56    59     0     0     0
SMALL
USER_CHARGES

@<TRIPOS>ATOM
      1 C1         -1.9313    0.5487    1.4813 C.ar      1 <0>        -0.0879
      2 C2         -1.3361    1.2029    0.4170 C.ar      1 <0>        -0.1277
      3 C3         -0.1123    0.7808   -0.0590 C.ar      1 <0>        -0.0609
      4 C4          0.5262   -0.3096    0.5358 C.ar      1 <0>        -0.1595
      5 C5         -0.0801   -0.9652    1.6096 C.ar      1 <0>        -0.0850
      6 C6         -1.3042   -0.5325    2.0753 C.ar      1 <0>        -0.1296
      7 C7          1.8375   -0.7679    0.0310 C.2       1 <0>         0.4461
      8 O1          2.5304   -0.0183   -0.6298 O.2       1 <0>        -0.4449
      9 C8          2.3053   -2.1336    0.3284 C.ar      1 <0>        -0.2180
     10 C9          1.3809   -3.1456    0.6107 C.ar      1 <0>         0.0114
     11 C10         1.8179   -4.4102    0.8855 C.ar      1 <0>        -0.2062
     12 C11         3.1819   -4.6929    0.8853 C.ar      1 <0>         0.3051
     13 C12         4.1046   -3.6881    0.6053 C.ar      1 <0>        -0.1319
     14 C13         3.6742   -2.4225    0.3235 C.ar      1 <0>         0.0448
     15 N1          5.5530   -3.9931    0.6072 N.pl3     1 <0>         0.0407
     16 O2          6.3398   -3.1873    1.0469 O.2       1 <0>        -0.1426
     17 O3          5.9493   -5.0480    0.1692 O.3       1 <0>        -0.1729
     18 N2          3.6230   -5.9806    1.1657 N.pl3     1 <0>        -0.7108
     19 C14         2.6532   -7.0623    1.3542 C.3       1 <0>         0.1581
     20 C15         3.3844   -8.3477    1.6444 C.ar      1 <0>        -0.1015
     21 C16         3.7659   -9.1754    0.6041 C.ar      1 <0>        -0.1046
     22 C17         4.4373  -10.3553    0.8660 C.ar      1 <0>        -0.0994
     23 C18         4.7293  -10.7110    2.1685 C.ar      1 <0>        -0.1036
     24 C19         4.3477   -9.8822    3.2151 C.ar      1 <0>         0.1432
     25 C20         3.6779   -8.6950    2.9482 C.ar      1 <0>        -0.1221
     26 N3          4.6415  -10.2399    4.5356 N.am      1 <0>        -0.6732
     27 C21         4.5819  -11.5324    4.9128 C.2       1 <0>         0.5132
     28 O4          4.3574  -12.3946    4.0899 O.2       1 <0>        -0.4948
     29 C22         4.7942  -11.9063    6.3572 C.3       1 <0>         0.0662
     30 H1          5.7524  -11.5243    6.7093 H         1 <0>         0.1026
     31 C23         3.6406  -11.3529    7.2311 C.3       1 <0>        -0.1467
     32 C24         3.6843  -12.3350    8.4334 C.3       1 <0>        -0.1539
     33 C25         4.1012  -13.6598    7.7592 C.3       1 <0>         0.0467
     34 O5          4.7371  -13.3328    6.5165 O.3       1 <0>        -0.3528
     35 H2         -2.8875    0.8862    1.8529 H         1 <0>         0.1293
     36 H3         -1.8312    2.0457   -0.0423 H         1 <0>         0.1316
     37 H4          0.3510    1.2920   -0.8899 H         1 <0>         0.1345
     38 H5          0.4081   -1.8093    2.0739 H         1 <0>         0.1343
     39 H6         -1.7741   -1.0383    2.9058 H         1 <0>         0.1310
     40 H7          0.3233   -2.9270    0.6117 H         1 <0>         0.1533
     41 H8          1.1051   -5.1917    1.1034 H         1 <0>         0.1525
     42 H9          4.3900   -1.6448    0.1017 H         1 <0>         0.1556
     43 H10         4.5730   -6.1631    1.2367 H         1 <0>         0.4158
     44 H11         1.9973   -6.8207    2.1906 H         1 <0>         0.0819
     45 H12         2.0586   -7.1791    0.4482 H         1 <0>         0.0863
     46 H13         3.5385   -8.8997   -0.4151 H         1 <0>         0.1285
     47 H14         4.7335  -10.9997    0.0515 H         1 <0>         0.1326
     48 H15         5.2534  -11.6330    2.3725 H         1 <0>         0.1406
     49 H16         3.3835   -8.0462    3.7599 H         1 <0>         0.1272
     50 H17         4.8881   -9.5576    5.1795 H         1 <0>         0.4120
     51 H18         3.8454  -10.3312    7.5509 H         1 <0>         0.0940
     52 H19         2.6866  -11.4149    6.7076 H         1 <0>         0.0853
     53 H20         4.4291  -12.0205    9.1644 H         1 <0>         0.0837
     54 H21         2.7011  -12.4273    8.8949 H         1 <0>         0.0896
     55 H22         4.8001  -14.1971    8.4004 H         1 <0>         0.0773
     56 H23         3.2199  -14.2741    7.5744 H         1 <0>         0.0755
@<TRIPOS>BOND
     1    1    6 ar
     2    1    2 ar
     3    1   35 1
     4    2    3 ar
     5    2   36 1
     6    3    4 ar
     7    3   37 1
     8    4    5 ar
     9    4    7 1
    10    5    6 ar
    11    5   38 1
    12    6   39 1
    13    7    8 2
    14    7    9 1
    15    9   14 ar
    16    9   10 ar
    17   10   11 ar
    18   10   40 1
    19   11   12 ar
    20   11   41 1
    21   12   13 ar
    22   12   18 1
    23   13   14 ar
    24   13   15 1
    25   14   42 1
    26   15   16 2
    27   15   17 1
    28   18   19 1
    29   18   43 1
    30   19   20 1
    31   19   44 1
    32   19   45 1
    33   20   25 ar
    34   20   21 ar
    35   21   22 ar
    36   21   46 1
    37   22   23 ar
    38   22   47 1
    39   23   24 ar
    40   23   48 1
    41   24   25 ar
    42   24   26 1
    43   25   49 1
    44   26   27 am
    45   26   50 1
    46   27   28 2
    47   27   29 1
    48   29   30 1
    49   29   34 1
    50   29   31 1
    51   31   32 1
    52   31   51 1
    53   31   52 1
    54   32   33 1
    55   32   53 1
    56   32   54 1
    57   33   34 1
    58   33   55 1
    59   33   56 1
@<TRIPOS>MOLECULE
ZINC09297999
   52    54     0     0     0
SMALL
USER_CHARGES
methyl 4-[[3-(ethoxycarbonylcarbamoyl)-4,5,6,7-tetrahydrobenzothiophen-2-yl]carbamoyl]benzoate
@<TRIPOS>ATOM
      1 C1         -1.7454   11.3845    3.7800 C.3       1 <0>        -0.1541
      2 C2         -2.1931   11.0196    2.3632 C.3       1 <0>         0.0792
      3 O1         -3.2964   10.0782    2.4316 O.3       1 <0>        -0.3643
      4 C3         -3.8109    9.6535    1.2625 C.2       1 <0>         0.6400
      5 O2         -3.3507   10.0584    0.2137 O.2       1 <0>        -0.5059
      6 N1         -4.8365    8.7792    1.2555 N.am      1 <0>        -0.6573
      7 C4         -5.3516    8.3540    0.0849 C.2       1 <0>         0.5892
      8 O3         -4.8907    8.7595   -0.9657 O.2       1 <0>        -0.4477
      9 C5         -6.4664    7.4037    0.0773 C.2       1 <0>        -0.2304
     10 C6         -7.8461    7.8599    0.0796 C.2       1 <0>        -0.0633
     11 C7         -8.7760    6.8803    0.0791 C.2       1 <0>        -0.2028
     12 S1         -7.8468    5.3734    0.0672 S.3       1 <0>         0.2503
     13 C8         -6.2444    6.0326    0.0633 C.2       1 <0>         0.0779
     14 N2         -5.0359    5.3565    0.0544 N.am      1 <0>        -0.6169
     15 C9         -5.0176    4.0089    0.0470 C.2       1 <0>         0.5566
     16 O4         -6.0618    3.3870    0.0482 O.2       1 <0>        -0.4837
     17 C10        -3.7262    3.2865    0.0375 C.ar      1 <0>        -0.1033
     18 C11        -3.7073    1.8908    0.0299 C.ar      1 <0>        -0.0605
     19 C12        -2.5048    1.2180    0.0205 C.ar      1 <0>        -0.0591
     20 C13        -1.3053    1.9323    0.0187 C.ar      1 <0>        -0.0918
     21 C14        -1.3242    3.3283    0.0322 C.ar      1 <0>        -0.0655
     22 C15        -2.5269    4.0009    0.0357 C.ar      1 <0>        -0.0970
     23 C16        -0.0144    1.2103    0.0087 C.2       1 <0>         0.5050
     24 O5          0.0021   -0.0041    0.0020 O.2       1 <0>        -0.4942
     25 O6          1.1428    1.8995    0.0013 O.3       1 <0>        -0.3532
     26 C17         2.3711    1.1254   -0.0145 C.3       1 <0>         0.0360
     27 C18       -10.2642    7.0478    0.0875 C.3       1 <0>        -0.0371
     28 C19       -10.5856    8.4987    0.4745 C.3       1 <0>        -0.1146
     29 C20        -9.7111    9.4375   -0.3617 C.3       1 <0>        -0.1193
     30 C21        -8.2530    9.3283    0.0880 C.3       1 <0>        -0.0644
     31 H1         -2.5774   11.8383    4.3184 H         1 <0>         0.0688
     32 H2         -1.4226   10.4838    4.3022 H         1 <0>         0.0684
     33 H3         -0.9171   12.0912    3.7286 H         1 <0>         0.0862
     34 H4         -1.3612   10.5658    1.8247 H         1 <0>         0.0750
     35 H5         -2.5159   11.9203    1.8409 H         1 <0>         0.0754
     36 H6         -5.2039    8.4559    2.0930 H         1 <0>         0.4222
     37 H7         -4.2025    5.8529    0.0534 H         1 <0>         0.4191
     38 H8         -4.6352    1.3382    0.0309 H         1 <0>         0.1535
     39 H9         -2.4902    0.1381    0.0143 H         1 <0>         0.1517
     40 H10        -0.3964    3.8809    0.0357 H         1 <0>         0.1504
     41 H11        -2.5416    5.0808    0.0416 H         1 <0>         0.1335
     42 H12         2.4130    0.4922    0.8717 H         1 <0>         0.0668
     43 H13         2.3960    0.5017   -0.9082 H         1 <0>         0.0668
     44 H14         3.2264    1.8011   -0.0191 H         1 <0>         0.1067
     45 H15       -10.6632    6.8354   -0.9044 H         1 <0>         0.0849
     46 H16       -10.7063    6.3667    0.8146 H         1 <0>         0.0835
     47 H17       -11.6372    8.7055    0.2759 H         1 <0>         0.0754
     48 H18       -10.3774    8.6489    1.5338 H         1 <0>         0.0692
     49 H19        -9.7872    9.1623   -1.4136 H         1 <0>         0.0688
     50 H20       -10.0533   10.4640   -0.2303 H         1 <0>         0.0717
     51 H21        -7.6164    9.8879   -0.5973 H         1 <0>         0.0757
     52 H22        -8.1500    9.7324    1.0951 H         1 <0>         0.0786
@<TRIPOS>BOND
     1    1    2 1
     2    1   31 1
     3    1   32 1
     4    1   33 1
     5    2    3 1
     6    2   34 1
     7    2   35 1
     8    3    4 1
     9    4    5 2
    10    4    6 am
    11    6    7 am
    12    6   36 1
    13    7    8 2
    14    7    9 1
    15    9   13 2
    16    9   10 1
    17   10   30 1
    18   10   11 2
    19   11   12 1
    20   11   27 1
    21   12   13 1
    22   13   14 1
    23   14   15 am
    24   14   37 1
    25   15   16 2
    26   15   17 1
    27   17   22 ar
    28   17   18 ar
    29   18   19 ar
    30   18   38 1
    31   19   20 ar
    32   19   39 1
    33   20   21 ar
    34   20   23 1
    35   21   22 ar
    36   21   40 1
    37   22   41 1
    38   23   24 2
    39   23   25 1
    40   25   26 1
    41   26   42 1
    42   26   43 1
    43   26   44 1
    44   27   28 1
    45   27   45 1
    46   27   46 1
    47   28   29 1
    48   28   47 1
    49   28   48 1
    50   29   30 1
    51   29   49 1
    52   29   50 1
    53   30   51 1
    54   30   52 1
@<TRIPOS>MOLECULE
ZINC16616226
   56    57     0     0     0
SMALL
USER_CHARGES
[2-[(2,3-dimethylphenyl)carbamoylamino]-2-oxo-ethyl] 4-isopropoxy-3-methoxy-benzoate
@<TRIPOS>ATOM
      1 C1          3.3952   -0.8508    0.3509 C.3       1 <0>        -0.1177
      2 C2          2.2382   -0.0654   -0.2106 C.ar      1 <0>        -0.0661
      3 C3          1.1862   -0.7251   -0.8196 C.ar      1 <0>        -0.1330
      4 C4          0.1226   -0.0081   -1.3356 C.ar      1 <0>        -0.0978
      5 C5          0.1077    1.3701   -1.2443 C.ar      1 <0>        -0.1328
      6 C6          1.1623    2.0354   -0.6335 C.ar      1 <0>         0.1616
      7 C7          2.2292    1.3123   -0.1161 C.ar      1 <0>        -0.1170
      8 C8          3.3762    2.0303    0.5472 C.3       1 <0>        -0.1183
      9 N1          1.1499    3.4315   -0.5390 N.am      1 <0>        -0.6714
     10 C9         -0.0204    4.0990   -0.5745 C.2       1 <0>         0.6964
     11 O1         -1.0697    3.4858   -0.5854 O.2       1 <0>        -0.5038
     12 N2         -0.0271    5.4466   -0.5979 N.am      1 <0>        -0.6858
     13 C10        -1.1974    6.1141   -0.6334 C.2       1 <0>         0.5197
     14 O2         -2.2441    5.5024   -0.6443 O.2       1 <0>        -0.4358
     15 C11        -1.2050    7.6208   -0.6595 C.3       1 <0>         0.0538
     16 O3         -2.5760    8.0974   -0.6959 O.3       1 <0>        -0.3280
     17 C12        -2.7592    9.4321   -0.7227 C.2       1 <0>         0.5207
     18 O4         -1.7995   10.1773   -0.7159 O.2       1 <0>        -0.5047
     19 C13        -4.1245    9.9884   -0.7602 C.ar      1 <0>        -0.1347
     20 C14        -5.2294    9.1326   -0.7739 C.ar      1 <0>        -0.0450
     21 C15        -6.5042    9.6541   -0.8031 C.ar      1 <0>        -0.1947
     22 C16        -6.6948   11.0292   -0.8308 C.ar      1 <0>         0.1507
     23 C17        -5.5971   11.8887   -0.8232 C.ar      1 <0>         0.0854
     24 C18        -4.3164   11.3728   -0.7881 C.ar      1 <0>        -0.1067
     25 O5         -5.7874   13.2350   -0.8498 O.3       1 <0>        -0.3016
     26 C19        -4.6178   14.0559   -0.8396 C.3       1 <0>         0.0226
     27 O6         -7.9533   11.5380   -0.8648 O.3       1 <0>        -0.2915
     28 C20        -9.0319   10.6110   -0.7259 C.3       1 <0>         0.0699
     29 C21       -10.1932   11.2857    0.0069 C.3       1 <0>        -0.1517
     30 C22        -9.4972   10.1586   -2.1115 C.3       1 <0>        -0.1780
     31 H1          4.1573   -0.9754   -0.4184 H         1 <0>         0.0724
     32 H2          3.8201   -0.3152    1.1998 H         1 <0>         0.0704
     33 H3          3.0452   -1.8301    0.6775 H         1 <0>         0.0680
     34 H4          1.1957   -1.8026   -0.8926 H         1 <0>         0.1238
     35 H5         -0.6976   -0.5262   -1.8103 H         1 <0>         0.1268
     36 H6         -0.7213    1.9299   -1.6516 H         1 <0>         0.1469
     37 H7          4.1353    2.2686   -0.1979 H         1 <0>         0.0721
     38 H8          3.0131    2.9513    1.0034 H         1 <0>         0.0602
     39 H9          3.8097    1.3904    1.3158 H         1 <0>         0.0776
     40 H10         1.9837    3.9188   -0.4479 H         1 <0>         0.4097
     41 H11         0.8103    5.9360   -0.5892 H         1 <0>         0.4139
     42 H12        -0.7113    8.0022    0.2343 H         1 <0>         0.1124
     43 H13        -0.6748    7.9715   -1.5450 H         1 <0>         0.1125
     44 H14        -5.0839    8.0626   -0.7573 H         1 <0>         0.1478
     45 H15        -7.3572    8.9917   -0.8091 H         1 <0>         0.1487
     46 H16        -3.4651   12.0375   -0.7825 H         1 <0>         0.1514
     47 H17        -4.9104   15.1056   -0.8634 H         1 <0>         0.1045
     48 H18        -4.0437   13.8592    0.0658 H         1 <0>         0.0574
     49 H19        -4.0071   13.8291   -1.7135 H         1 <0>         0.0574
     50 H20        -8.6958    9.7454   -0.1550 H         1 <0>         0.0795
     51 H21       -10.5292   12.1513   -0.5640 H         1 <0>         0.0689
     52 H22       -11.0159   10.5786    0.1128 H         1 <0>         0.0790
     53 H23        -9.8617   11.6080    0.9940 H         1 <0>         0.0656
     54 H24       -10.3199    9.4515   -2.0056 H         1 <0>         0.0755
     55 H25        -9.8333   11.0241   -2.6824 H         1 <0>         0.0696
     56 H26        -8.6699    9.6779   -2.6336 H         1 <0>         0.0628
@<TRIPOS>BOND
     1    1    2 1
     2    1   31 1
     3    1   32 1
     4    1   33 1
     5    2    7 ar
     6    2    3 ar
     7    3    4 ar
     8    3   34 1
     9    4    5 ar
    10    4   35 1
    11    5    6 ar
    12    5   36 1
    13    6    7 ar
    14    6    9 1
    15    7    8 1
    16    8   37 1
    17    8   38 1
    18    8   39 1
    19    9   10 am
    20    9   40 1
    21   10   11 2
    22   10   12 am
    23   12   13 am
    24   12   41 1
    25   13   14 2
    26   13   15 1
    27   15   16 1
    28   15   42 1
    29   15   43 1
    30   16   17 1
    31   17   18 2
    32   17   19 1
    33   19   24 ar
    34   19   20 ar
    35   20   21 ar
    36   20   44 1
    37   21   22 ar
    38   21   45 1
    39   22   23 ar
    40   22   27 1
    41   23   24 ar
    42   23   25 1
    43   24   46 1
    44   25   26 1
    45   26   47 1
    46   26   48 1
    47   26   49 1
    48   27   28 1
    49   28   29 1
    50   28   30 1
    51   28   50 1
    52   29   51 1
    53   29   52 1
    54   29   53 1
    55   30   54 1
    56   30   55 1
    57   30   56 1
@<TRIPOS>MOLECULE
ZINC32691859
   49    51     0     0     0
SMALL
USER_CHARGES
N-(2-methoxy-4-nitro-phenyl)-2-[2-(1-naphthylamino)-2-oxo-ethyl]sulfanyl-acetamide
@<TRIPOS>ATOM
      1 C1         -4.0685    4.1246   -1.6038 C.3       1 <0>         0.0183
      2 O1         -2.8838    3.5106   -1.0922 O.3       1 <0>        -0.3099
      3 C2         -2.9806    2.2112   -0.7034 C.ar      1 <0>         0.1009
      4 C3         -4.1875    1.5402   -0.8172 C.ar      1 <0>        -0.1291
      5 C4         -4.2856    0.2209   -0.4161 C.ar      1 <0>        -0.0287
      6 C5         -3.1801   -0.4347    0.0939 C.ar      1 <0>        -0.0600
      7 C6         -1.9713    0.2257    0.2053 C.ar      1 <0>        -0.1072
      8 C7         -1.8651    1.5496   -0.1951 C.ar      1 <0>         0.1841
      9 N1         -0.6405    2.2213   -0.0831 N.am      1 <0>        -0.6705
     10 C8          0.5134    1.5249   -0.0919 C.2       1 <0>         0.5380
     11 O2          0.4898    0.3126   -0.1247 O.2       1 <0>        -0.4914
     12 C9          1.8329    2.2525   -0.0672 C.3       1 <0>        -0.1534
     13 S1          3.1885    1.0475   -0.0946 S.3       1 <0>        -0.0896
     14 C10         4.6860    2.0707   -0.0612 C.3       1 <0>        -0.1519
     15 C11         5.9025    1.1815   -0.0806 C.2       1 <0>         0.5333
     16 O3          5.7721   -0.0239   -0.1137 O.2       1 <0>        -0.4945
     17 N2          7.1354    1.7257   -0.0612 N.am      1 <0>        -0.6786
     18 C12         8.2606    0.9101   -0.1945 C.ar      1 <0>         0.1561
     19 C13         8.2170   -0.2090   -0.9978 C.ar      1 <0>        -0.1207
     20 C14         9.3330   -1.0285   -1.1375 C.ar      1 <0>        -0.0932
     21 C15        10.4962   -0.7491   -0.4871 C.ar      1 <0>        -0.1212
     22 C16        10.5825    0.3826    0.3412 C.ar      1 <0>        -0.0368
     23 C17         9.4545    1.2273    0.4874 C.ar      1 <0>        -0.0625
     24 C18         9.5409    2.3552    1.3186 C.ar      1 <0>        -0.1102
     25 C19        10.7074    2.6279    1.9655 C.ar      1 <0>        -0.1133
     26 C20        11.8188    1.8002    1.8191 C.ar      1 <0>        -0.1157
     27 C21        11.7701    0.6960    1.0249 C.ar      1 <0>        -0.1023
     28 N3         -5.5778   -0.4917   -0.5325 N.pl3     1 <0>         0.0298
     29 O4         -5.6662   -1.6540   -0.1793 O.2       1 <0>        -0.1533
     30 O5         -6.5526    0.0842   -0.9815 O.3       1 <0>        -0.1633
     31 H1         -3.8516    5.1674   -1.8787 H         1 <0>         0.1123
     32 H2         -4.8539    4.1041   -0.8339 H         1 <0>         0.0639
     33 H3         -4.4119    3.5749   -2.4926 H         1 <0>         0.0638
     34 H4         -5.0529    2.0495   -1.2147 H         1 <0>         0.1623
     35 H5         -3.2617   -1.4653    0.4062 H         1 <0>         0.1607
     36 H6         -1.1096   -0.2887    0.6043 H         1 <0>         0.1831
     37 H7         -0.6209    3.3170    0.0120 H         1 <0>         0.4496
     38 H8          1.9069    2.9077   -0.9477 H         1 <0>         0.1201
     39 H9          1.9000    2.8592    0.8479 H         1 <0>         0.1200
     40 H10         4.6995    2.7297   -0.9418 H         1 <0>         0.1180
     41 H11         4.6926    2.6812    0.8538 H         1 <0>         0.1167
     42 H12         7.2551    2.8125    0.0597 H         1 <0>         0.4343
     43 H13         7.3063   -0.4528   -1.5245 H         1 <0>         0.1345
     44 H14         9.2756   -1.9003   -1.7724 H         1 <0>         0.1283
     45 H15        11.3520   -1.3967   -0.6081 H         1 <0>         0.1293
     46 H16         8.6874    3.0055    1.4413 H         1 <0>         0.1210
     47 H17        10.7725    3.4986    2.6012 H         1 <0>         0.1241
     48 H18        12.7325    2.0386    2.3432 H         1 <0>         0.1248
     49 H19        12.6396    0.0639    0.9203 H         1 <0>         0.1300
@<TRIPOS>BOND
     1    1    2 1
     2    1   31 1
     3    1   32 1
     4    1   33 1
     5    2    3 1
     6    3    8 ar
     7    3    4 ar
     8    4    5 ar
     9    4   34 1
    10    5    6 ar
    11    5   28 1
    12    6    7 ar
    13    6   35 1
    14    7    8 ar
    15    7   36 1
    16    8    9 1
    17    9   10 am
    18    9   37 1
    19   10   11 2
    20   10   12 1
    21   12   13 1
    22   12   38 1
    23   12   39 1
    24   13   14 1
    25   14   15 1
    26   14   40 1
    27   14   41 1
    28   15   16 2
    29   15   17 am
    30   17   18 1
    31   17   42 1
    32   18   23 ar
    33   18   19 ar
    34   19   20 ar
    35   19   43 1
    36   20   21 ar
    37   20   44 1
    38   21   22 ar
    39   21   45 1
    40   22   27 ar
    41   22   23 ar
    42   23   24 ar
    43   24   25 ar
    44   24   46 1
    45   25   26 ar
    46   25   47 1
    47   26   27 ar
    48   26   48 1
    49   27   49 1
    50   28   29 2
    51   28   30 1
@<TRIPOS>MOLECULE
ZINC39583545
   56    58     0     0     0
SMALL
USER_CHARGES

@<TRIPOS>ATOM
      1 C1          1.1306   -1.6717    2.8023 C.3       1 <0>        -0.1516
      2 C2          0.5061   -1.4239    1.4277 C.3       1 <0>         0.0575
      3 O1         -0.8020   -1.9978    1.3883 O.3       1 <0>        -0.3383
      4 C3         -1.4941   -1.8666    0.2374 C.2       1 <0>         0.5412
      5 O2         -0.9990   -1.2801   -0.7068 O.2       1 <0>        -0.4874
      6 C4         -2.7953   -2.4107    0.1286 C.2       1 <0>        -0.2272
      7 C5         -2.9845   -3.7307   -0.0846 C.2       1 <0>         0.2073
      8 N1         -4.2412   -4.2548   -0.1889 N.am      1 <0>        -0.6425
      9 C6         -5.3601   -3.5258   -0.0920 C.2       1 <0>         0.7095
     10 O3         -6.4355   -4.0824   -0.1984 O.2       1 <0>        -0.5586
     11 N2         -5.3330   -2.1952    0.1202 N.am      1 <0>        -0.7087
     12 C7         -4.0244   -1.5333    0.2537 C.3       1 <0>         0.2449
     13 H1         -3.9637   -0.7590   -0.5111 H         1 <0>         0.0971
     14 C8         -3.9763   -0.8554    1.5988 C.ar      1 <0>        -0.1166
     15 C9         -4.3640   -1.5430    2.7336 C.ar      1 <0>        -0.0863
     16 C10        -4.3199   -0.9212    3.9674 C.ar      1 <0>        -0.1174
     17 C11        -3.8877    0.3881    4.0665 C.ar      1 <0>        -0.1093
     18 C12        -3.4991    1.0754    2.9318 C.ar      1 <0>        -0.1175
     19 C13        -3.5391    0.4522    1.6985 C.ar      1 <0>        -0.1038
     20 C14        -1.7893   -4.6401   -0.2098 C.3       1 <0>         0.0958
     21 O4         -1.7710   -5.5565    0.8865 O.3       1 <0>        -0.3415
     22 C15        -0.7586   -6.4451    0.9243 C.2       1 <0>         0.5191
     23 O5          0.0856   -6.4419    0.0502 O.2       1 <0>        -0.5074
     24 C16        -0.6752   -7.4208    2.0258 C.ar      1 <0>        -0.1971
     25 C17        -1.6491   -7.4296    3.0295 C.ar      1 <0>        -0.0055
     26 C18        -1.5688   -8.3389    4.0525 C.ar      1 <0>        -0.2153
     27 C19        -0.5189   -9.2526    4.0931 C.ar      1 <0>         0.2555
     28 C20         0.4523   -9.2465    3.0955 C.ar      1 <0>        -0.2141
     29 C21         0.3748   -8.3437    2.0665 C.ar      1 <0>         0.0026
     30 N3         -0.4400  -10.1725    5.1323 N.pl3     1 <0>        -0.6250
     31 C22        -1.4608  -10.1800    6.1831 C.3       1 <0>         0.0848
     32 C23         0.6639  -11.1346    5.1766 C.3       1 <0>         0.0845
     33 H2          2.1284   -1.2339    2.8323 H         1 <0>         0.0809
     34 H3          0.5093   -1.2132    3.5716 H         1 <0>         0.0676
     35 H4          1.1990   -2.7446    2.9822 H         1 <0>         0.0664
     36 H5          0.4377   -0.3510    1.2478 H         1 <0>         0.0705
     37 H6          1.1274   -1.8824    0.6584 H         1 <0>         0.0689
     38 H7         -4.3281   -5.2087   -0.3421 H         1 <0>         0.4314
     39 H8         -6.1560   -1.6862    0.1868 H         1 <0>         0.4363
     40 H9         -4.7017   -2.5659    2.6562 H         1 <0>         0.1168
     41 H10        -4.6235   -1.4582    4.8539 H         1 <0>         0.1237
     42 H11        -3.8539    0.8741    5.0303 H         1 <0>         0.1236
     43 H12        -3.1617    2.0985    3.0092 H         1 <0>         0.1248
     44 H13        -3.2320    0.9880    0.8125 H         1 <0>         0.1231
     45 H14        -1.8515   -5.1949   -1.1461 H         1 <0>         0.1012
     46 H15        -0.8767   -4.0441   -0.2005 H         1 <0>         0.0943
     47 H16        -2.4633   -6.7207    2.9989 H         1 <0>         0.1363
     48 H17        -2.3206   -8.3462    4.8279 H         1 <0>         0.1321
     49 H18         1.2654   -9.9566    3.1300 H         1 <0>         0.1336
     50 H19         1.1261   -8.3424    1.2906 H         1 <0>         0.1372
     51 H20        -2.2728  -10.8482    5.8961 H         1 <0>         0.0555
     52 H21        -1.0183  -10.5261    7.1171 H         1 <0>         0.0720
     53 H22        -1.8510   -9.1712    6.3178 H         1 <0>         0.0738
     54 H23         1.4964  -10.7068    5.7352 H         1 <0>         0.0555
     55 H24         0.3294  -12.0491    5.6665 H         1 <0>         0.0721
     56 H25         0.9872  -11.3637    4.1612 H         1 <0>         0.0739
@<TRIPOS>BOND
     1    1    2 1
     2    1   33 1
     3    1   34 1
     4    1   35 1
     5    2    3 1
     6    2   36 1
     7    2   37 1
     8    3    4 1
     9    4    5 2
    10    4    6 1
    11    6   12 1
    12    6    7 2
    13    7    8 1
    14    7   20 1
    15    8    9 am
    16    8   38 1
    17    9   10 2
    18    9   11 am
    19   11   12 1
    20   11   39 1
    21   12   13 1
    22   12   14 1
    23   14   19 ar
    24   14   15 ar
    25   15   16 ar
    26   15   40 1
    27   16   17 ar
    28   16   41 1
    29   17   18 ar
    30   17   42 1
    31   18   19 ar
    32   18   43 1
    33   19   44 1
    34   20   21 1
    35   20   45 1
    36   20   46 1
    37   21   22 1
    38   22   23 2
    39   22   24 1
    40   24   29 ar
    41   24   25 ar
    42   25   26 ar
    43   25   47 1
    44   26   27 ar
    45   26   48 1
    46   27   28 ar
    47   27   30 1
    48   28   29 ar
    49   28   49 1
    50   29   50 1
    51   30   31 1
    52   30   32 1
    53   31   51 1
    54   31   52 1
    55   31   53 1
    56   32   54 1
    57   32   55 1
    58   32   56 1
@<TRIPOS>MOLECULE
ZINC59788248
   46    48     0     0     0
SMALL
USER_CHARGES

@<TRIPOS>ATOM
      1 C1         -2.3144    2.7675   -1.6625 C.2       1 <0>        -0.1547
      2 C2         -1.7412    1.6336   -1.3436 C.2       1 <0>        -0.1534
      3 C3         -2.5849    0.4369   -0.9870 C.3       1 <0>        -0.0715
      4 S1         -2.3452   -0.8636   -2.2287 S.3       1 <0>        -0.1214
      5 C4         -3.3839   -2.1758   -1.6776 C.ar      1 <0>        -0.1140
      6 C5         -4.1388   -2.0279   -0.5224 C.ar      1 <0>        -0.1129
      7 C6         -4.9531   -3.0584   -0.0926 C.ar      1 <0>        -0.1141
      8 C7         -5.0185   -4.2388   -0.8102 C.ar      1 <0>        -0.1002
      9 C8         -4.2702   -4.3951   -1.9621 C.ar      1 <0>        -0.1125
     10 C9         -3.4547   -3.3646   -2.4043 C.ar      1 <0>         0.1657
     11 N1         -2.6993   -3.5190   -3.5746 N.am      1 <0>        -0.6568
     12 C10        -3.0967   -4.3901   -4.5232 C.2       1 <0>         0.5374
     13 O1         -4.1582   -4.9662   -4.4111 O.2       1 <0>        -0.4987
     14 C11        -2.2222   -4.6483   -5.7230 C.3       1 <0>        -0.1482
     15 S2         -3.0265   -5.8592   -6.8081 S.3       1 <0>         0.1003
     16 C12        -1.8951   -6.0510   -8.1452 C.2       1 <0>         0.2541
     17 N2         -0.7423   -5.4322   -8.2766 N.2       1 <0>        -0.5322
     18 H1         -2.8124   -7.4478   -9.3880 H         1 <0>         0.4518
     19 C13        -0.1485   -5.8220   -9.4140 C.2       1 <0>         0.2723
     20 N3         -0.9208   -6.6956  -10.0192 N.2       1 <0>        -0.2818
     21 N4         -2.0577   -6.8642   -9.2126 N.pl3     1 <0>        -0.4510
     22 C14         1.1664   -5.3441   -9.9086 C.ar      1 <0>        -0.0098
     23 C15         1.8961   -4.4151   -9.1694 C.ar      1 <0>        -0.0269
     24 C16         3.1185   -3.9744   -9.6339 C.ar      1 <0>        -0.1171
     25 C17         3.6197   -4.4529  -10.8313 C.ar      1 <0>        -0.0403
     26 C18         2.8996   -5.3746  -11.5692 C.ar      1 <0>        -0.0503
     27 C19         1.6785   -5.8269  -11.1110 C.ar      1 <0>        -0.0231
     28 N5          3.4418   -5.8814  -12.8499 N.pl3     1 <0>         0.0325
     29 O2          4.5132   -5.4895  -13.2500 O.2       1 <0>        -0.1517
     30 O3          2.8132   -6.6871  -13.4959 O.3       1 <0>        -0.1528
     31 H2         -1.7097    3.6251   -1.9181 H         1 <0>         0.1088
     32 H3         -3.3916    2.8435   -1.6743 H         1 <0>         0.1011
     33 H4         -0.6640    1.5564   -1.3361 H         1 <0>         0.1212
     34 H5         -2.2888    0.0626   -0.0070 H         1 <0>         0.0983
     35 H6         -3.6353    0.7271   -0.9629 H         1 <0>         0.0932
     36 H7         -4.0895   -1.1076    0.0408 H         1 <0>         0.1273
     37 H8         -5.5398   -2.9417    0.8066 H         1 <0>         0.1290
     38 H9         -5.6560   -5.0413   -0.4695 H         1 <0>         0.1316
     39 H10        -4.3236   -5.3185   -2.5196 H         1 <0>         0.1517
     40 H11        -1.8906   -2.9988   -3.7020 H         1 <0>         0.4164
     41 H12        -2.0691   -3.7170   -6.2682 H         1 <0>         0.1343
     42 H13        -1.2593   -5.0388   -5.3935 H         1 <0>         0.1350
     43 H14         1.5054   -4.0403   -8.2348 H         1 <0>         0.1550
     44 H15         3.6848   -3.2544   -9.0618 H         1 <0>         0.1567
     45 H16         4.5767   -4.1051  -11.1913 H         1 <0>         0.1593
     46 H17         1.1190   -6.5501  -11.6858 H         1 <0>         0.1621
@<TRIPOS>BOND
     1    1    2 2
     2    1   31 1
     3    1   32 1
     4    2    3 1
     5    2   33 1
     6    3    4 1
     7    3   34 1
     8    3   35 1
     9    4    5 1
    10    5   10 ar
    11    5    6 ar
    12    6    7 ar
    13    6   36 1
    14    7    8 ar
    15    7   37 1
    16    8    9 ar
    17    8   38 1
    18    9   10 ar
    19    9   39 1
    20   10   11 1
    21   11   12 am
    22   11   40 1
    23   12   13 2
    24   12   14 1
    25   14   41 1
    26   14   42 1
    27   14   15 1
    28   15   16 1
    29   16   17 2
    30   16   21 1
    31   17   19 1
    32   18   21 1
    33   19   22 1
    34   19   20 2
    35   20   21 1
    36   22   27 ar
    37   22   23 ar
    38   23   24 ar
    39   23   43 1
    40   24   25 ar
    41   24   44 1
    42   25   26 ar
    43   25   45 1
    44   26   27 ar
    45   26   28 1
    46   27   46 1
    47   28   29 2
    48   28   30 1
@<TRIPOS>MOLECULE
ZINC16291067
   40    41     0     0     0
SMALL
USER_CHARGES
N-[(2-hydroxy-4-methyl-phenyl)methyleneamino]-2-[1-(2-thienyl)ethylideneamino]oxy-acetamide
@<TRIPOS>ATOM
      1 C1          3.7088   -0.7142   -0.0372 C.3       1 <0>        -0.1206
      2 C2          2.3984    0.0298   -0.0207 C.ar      1 <0>        -0.0504
      3 C3          1.2067   -0.6750   -0.0131 C.ar      1 <0>        -0.1366
      4 C4          0.0021   -0.0041    0.0020 C.ar      1 <0>        -0.0691
      5 C5         -0.0169    1.3925    0.0097 C.ar      1 <0>        -0.0951
      6 C6          1.1919    2.1019    0.0020 C.ar      1 <0>         0.1529
      7 C7          2.3930    1.4119   -0.0137 C.ar      1 <0>        -0.1557
      8 O1          1.1857    3.4599    0.0093 O.3       1 <0>        -0.4733
      9 C8         -1.3007    2.1162    0.0197 C.2       1 <0>         0.1062
     10 N1         -1.3141    3.4141    0.0268 N.2       1 <0>        -0.2025
     11 N2         -2.5345    4.1020    0.0363 N.am      1 <0>        -0.5850
     12 C9         -2.5484    5.4497    0.0437 C.2       1 <0>         0.5342
     13 O2         -1.5041    6.0670    0.0421 O.2       1 <0>        -0.4795
     14 C10        -3.8612    6.1896    0.0540 C.3       1 <0>         0.0589
     15 O3         -3.6145    7.5972    0.0605 O.3       1 <0>        -0.2088
     16 N3         -4.7893    8.3877    0.0703 N.2       1 <0>        -0.3347
     17 C11        -4.7002    9.6818    0.0769 C.2       1 <0>         0.2321
     18 C12        -5.9504   10.5231    0.0874 C.3       1 <0>        -0.1000
     19 C13        -3.3823   10.3264    0.0742 C.2       1 <0>        -0.1928
     20 C14        -2.1265    9.7447    0.0708 C.2       1 <0>        -0.0946
     21 C15        -1.0252   10.5670    0.0648 C.2       1 <0>        -0.1654
     22 C16        -1.2013   11.9150    0.0734 C.2       1 <0>        -0.1558
     23 S1         -2.9799   12.0659    0.0823 S.3       1 <0>         0.0712
     24 H1          4.0149   -0.8881   -1.0688 H         1 <0>         0.0761
     25 H2          4.4691   -0.1224    0.4726 H         1 <0>         0.0698
     26 H3          3.5902   -1.6703    0.4727 H         1 <0>         0.0710
     27 H4          1.2207   -1.7549   -0.0187 H         1 <0>         0.1305
     28 H5         -0.9253   -0.5576    0.0083 H         1 <0>         0.1328
     29 H6          3.3267    1.9547   -0.0200 H         1 <0>         0.1326
     30 H7          1.1923    3.8485    0.8948 H         1 <0>         0.3931
     31 H8         -2.2304    1.5666    0.0211 H         1 <0>         0.1217
     32 H9         -3.3695    3.6084    0.0376 H         1 <0>         0.3860
     33 H10        -4.4342    5.9253   -0.8348 H         1 <0>         0.0936
     34 H11        -4.4258    5.9156    0.9452 H         1 <0>         0.0936
     35 H12        -6.2470   10.7204    1.1176 H         1 <0>         0.0946
     36 H13        -5.7574   11.4671   -0.4222 H         1 <0>         0.0873
     37 H14        -6.7512    9.9904   -0.4255 H         1 <0>         0.0908
     38 H15        -2.0146    8.6705    0.0697 H         1 <0>         0.1616
     39 H16        -0.0304   10.1467    0.0582 H         1 <0>         0.1393
     40 H17        -0.4551   12.6958    0.0741 H         1 <0>         0.1903
@<TRIPOS>BOND
     1    1    2 1
     2    1   24 1
     3    1   25 1
     4    1   26 1
     5    2    7 ar
     6    2    3 ar
     7    3    4 ar
     8    3   27 1
     9    4    5 ar
    10    4   28 1
    11    5    6 ar
    12    5    9 1
    13    6    7 ar
    14    6    8 1
    15    7   29 1
    16    8   30 1
    17    9   10 2
    18    9   31 1
    19   10   11 1
    20   11   12 am
    21   11   32 1
    22   12   13 2
    23   12   14 1
    24   14   15 1
    25   14   33 1
    26   14   34 1
    27   15   16 1
    28   16   17 2
    29   17   18 1
    30   17   19 1
    31   18   35 1
    32   18   36 1
    33   18   37 1
    34   19   23 1
    35   19   20 2
    36   20   21 1
    37   20   38 1
    38   21   22 2
    39   21   39 1
    40   22   23 1
    41   22   40 1
@<TRIPOS>MOLECULE
ZINC28845148
   51    52     0     0     0
SMALL
USER_CHARGES

@<TRIPOS>ATOM
      1 C1         -0.0187    1.5258    0.0104 C.3       1 <0>        -0.1686
      2 C2          0.0021   -0.0041    0.0020 C.3       1 <0>         0.0713
      3 H1         -1.0205   -0.3814    0.0098 H         1 <0>         0.1151
      4 C3          0.7309   -0.5033    1.2229 C.2       1 <0>         0.5204
      5 O1          1.7740   -1.1089    1.1008 O.2       1 <0>        -0.4393
      6 N1          0.2232   -0.2765    2.4506 N.am      1 <0>        -0.6880
      7 C4          0.8750   -0.7229    3.5425 C.2       1 <0>         0.6954
      8 O2          1.9207   -1.3301    3.4200 O.2       1 <0>        -0.5248
      9 N2          0.3673   -0.4961    4.7702 N.am      1 <0>        -0.7329
     10 C5          1.0758   -0.9814    5.9570 C.3       1 <0>         0.1602
     11 C6          0.6854   -2.4363    6.2248 C.3       1 <0>        -0.1312
     12 C7          1.4253   -2.9431    7.4643 C.3       1 <0>        -0.1179
     13 C8          1.0466   -2.0830    8.6716 C.3       1 <0>        -0.1230
     14 C9          1.4371   -0.6281    8.4039 C.3       1 <0>        -0.1165
     15 C10         0.6971   -0.1213    7.1643 C.3       1 <0>        -0.1257
     16 O3          0.6709   -0.4649   -1.1737 O.3       1 <0>        -0.3223
     17 C11        -0.0852   -0.6723   -2.2632 C.2       1 <0>         0.4686
     18 O4         -1.2755   -0.4693   -2.2201 O.2       1 <0>        -0.5016
     19 C12         0.5506   -1.1584   -3.5402 C.3       1 <0>        -0.0766
     20 C13         1.5993   -0.1460   -4.0053 C.3       1 <0>        -0.1124
     21 C14         2.2447   -0.6395   -5.3017 C.3       1 <0>        -0.1188
     22 C15         1.1703   -0.7928   -6.3802 C.3       1 <0>        -0.1245
     23 C16         0.1216   -1.8051   -5.9151 C.3       1 <0>        -0.1197
     24 C17        -0.5238   -1.3116   -4.6186 C.3       1 <0>        -0.1045
     25 H2          1.0039    1.9031    0.0027 H         1 <0>         0.0774
     26 H3         -0.5459    1.8868   -0.8726 H         1 <0>         0.0809
     27 H4         -0.5289    1.8773    0.9072 H         1 <0>         0.0817
     28 H5         -0.6114    0.2081    2.5483 H         1 <0>         0.4105
     29 H6         -0.4673   -0.0115    4.8679 H         1 <0>         0.3982
     30 H7          2.1510   -0.9188    5.7892 H         1 <0>         0.0918
     31 H8         -0.3898   -2.4989    6.3925 H         1 <0>         0.0641
     32 H9          0.9552   -3.0491    5.3646 H         1 <0>         0.0684
     33 H10         1.1472   -3.9796    7.6550 H         1 <0>         0.0663
     34 H11         2.5005   -2.8805    7.2965 H         1 <0>         0.0658
     35 H12        -0.0286   -2.1456    8.8394 H         1 <0>         0.0630
     36 H13         1.5738   -2.4441    9.5547 H         1 <0>         0.0654
     37 H14         1.1673   -0.0153    9.2640 H         1 <0>         0.0691
     38 H15         2.5123   -0.5655    8.2361 H         1 <0>         0.0666
     39 H16         0.9753    0.9152    6.9736 H         1 <0>         0.0700
     40 H17        -0.3781   -0.1839    7.3321 H         1 <0>         0.0692
     41 H18         1.0287   -2.1220   -3.3641 H         1 <0>         0.1127
     42 H19         1.1211    0.8175   -4.1813 H         1 <0>         0.0688
     43 H20         2.3647   -0.0369   -3.2370 H         1 <0>         0.0792
     44 H21         2.9918    0.0817   -5.6331 H         1 <0>         0.0698
     45 H22         2.7229   -1.6031   -5.1257 H         1 <0>         0.0675
     46 H23         0.6921    0.1708   -6.5562 H         1 <0>         0.0638
     47 H24         1.6301   -1.1443   -7.3038 H         1 <0>         0.0659
     48 H25        -0.6438   -1.9143   -6.6834 H         1 <0>         0.0699
     49 H26         0.5997   -2.7687   -5.7390 H         1 <0>         0.0658
     50 H27        -1.2709   -2.0328   -4.2873 H         1 <0>         0.0723
     51 H28        -1.0020   -0.3481   -4.7946 H         1 <0>         0.0732
@<TRIPOS>BOND
     1    1    2 1
     2    1   25 1
     3    1   26 1
     4    1   27 1
     5    2    3 1
     6    2    4 1
     7    2   16 1
     8    4    5 2
     9    4    6 am
    10    6    7 am
    11    6   28 1
    12    7    8 2
    13    7    9 am
    14    9   10 1
    15    9   29 1
    16   10   15 1
    17   10   11 1
    18   10   30 1
    19   11   12 1
    20   11   31 1
    21   11   32 1
    22   12   13 1
    23   12   33 1
    24   12   34 1
    25   13   14 1
    26   13   35 1
    27   13   36 1
    28   14   15 1
    29   14   37 1
    30   14   38 1
    31   15   39 1
    32   15   40 1
    33   16   17 1
    34   17   18 2
    35   17   19 1
    36   19   24 1
    37   19   20 1
    38   19   41 1
    39   20   21 1
    40   20   42 1
    41   20   43 1
    42   21   22 1
    43   21   44 1
    44   21   45 1
    45   22   23 1
    46   22   46 1
    47   22   47 1
    48   23   24 1
    49   23   48 1
    50   23   49 1
    51   24   50 1
    52   24   51 1
@<TRIPOS>MOLECULE
ZINC54352527
   36    37     0     0     0
SMALL
USER_CHARGES

@<TRIPOS>ATOM
      1 C1          0.0150    1.3394    0.0139 C.ar      1 <0>        -0.1113
      2 C2          1.2063    2.0405    0.0057 C.ar      1 <0>        -0.0512
      3 C3          2.4090    1.3594   -0.0174 C.ar      1 <0>        -0.0496
      4 C4          2.4203   -0.0228   -0.0318 C.ar      1 <0>        -0.0513
      5 C5          1.2290   -0.7239   -0.0226 C.ar      1 <0>        -0.1113
      6 C6          0.0263   -0.0428   -0.0010 C.ar      1 <0>        -0.0323
      7 C7         -1.2724   -0.8072    0.0080 C.3       1 <0>        -0.1008
      8 C8         -1.7309   -1.0505   -1.4313 C.3       1 <0>         0.1411
      9 N1         -2.9935   -1.7935   -1.4226 N.am      1 <0>        -0.7379
     10 C9         -3.5895   -2.1229   -2.5857 C.2       1 <0>         0.7094
     11 O1         -3.0794   -1.8033   -3.6421 O.2       1 <0>        -0.5647
     12 N2         -4.7511   -2.8065   -2.5777 N.am      1 <0>        -0.6804
     13 C10        -5.4189   -3.0678   -3.7823 C.ar      1 <0>         0.1541
     14 C11        -4.6935   -3.3111   -4.9403 C.ar      1 <0>        -0.0744
     15 C12        -5.3523   -3.5685   -6.1273 C.ar      1 <0>        -0.1111
     16 C13        -6.7360   -3.5839   -6.1642 C.ar      1 <0>         0.0838
     17 C14        -7.4647   -3.3414   -5.0100 C.ar      1 <0>         0.0547
     18 C15        -6.8080   -3.0891   -3.8172 C.ar      1 <0>         0.0658
     19 F1         -7.5167   -2.8585   -2.6903 F         1 <0>        -0.1170
     20 F2         -8.8151   -3.3567   -5.0478 F         1 <0>        -0.1121
     21 F3         -7.3771   -3.8350   -7.3266 F         1 <0>        -0.1172
     22 N3          3.6846    2.1102   -0.0272 N.pl3     1 <0>         0.0312
     23 O2          3.6747    3.3191   -0.0150 O.2       1 <0>        -0.1557
     24 O3          4.7365    1.5145   -0.0474 O.3       1 <0>        -0.1558
     25 H1         -0.9246    1.8715    0.0365 H         1 <0>         0.1489
     26 H2          1.1974    3.1204    0.0169 H         1 <0>         0.1557
     27 H3          3.3600   -0.5549   -0.0505 H         1 <0>         0.1557
     28 H4          1.2379   -1.8038   -0.0346 H         1 <0>         0.1490
     29 H5         -1.1275   -1.7639    0.5098 H         1 <0>         0.0922
     30 H6         -2.0301   -0.2300    0.5380 H         1 <0>         0.0921
     31 H7         -1.8758   -0.0938   -1.9331 H         1 <0>         0.0763
     32 H8         -0.9733   -1.6277   -1.9613 H         1 <0>         0.0767
     33 H9         -3.4004   -2.0485   -0.5798 H         1 <0>         0.4022
     34 H10        -5.1249   -3.1176   -1.7385 H         1 <0>         0.4146
     35 H11        -3.6139   -3.2989   -4.9137 H         1 <0>         0.1700
     36 H12        -4.7867   -3.7577   -7.0277 H         1 <0>         0.1606
@<TRIPOS>BOND
     1    1    6 ar
     2    1    2 ar
     3    1   25 1
     4    2    3 ar
     5    2   26 1
     6    3    4 ar
     7    3   22 1
     8    4    5 ar
     9    4   27 1
    10    5    6 ar
    11    5   28 1
    12    6    7 1
    13    7    8 1
    14    7   29 1
    15    7   30 1
    16    8    9 1
    17    8   31 1
    18    8   32 1
    19    9   10 am
    20    9   33 1
    21   10   11 2
    22   10   12 am
    23   12   13 1
    24   12   34 1
    25   13   18 ar
    26   13   14 ar
    27   14   15 ar
    28   14   35 1
    29   15   16 ar
    30   15   36 1
    31   16   17 ar
    32   16   21 1
    33   17   18 ar
    34   17   20 1
    35   18   19 1
    36   22   23 2
    37   22   24 1
@<TRIPOS>MOLECULE
ZINC49306902
   50    51     0     0     0
SMALL
USER_CHARGES

@<TRIPOS>ATOM
      1 C1          0.3184    0.7172   -1.2155 C.3       1 <0>        -0.1469
      2 C2         -0.1545   -0.6866   -0.8328 C.3       1 <0>         0.2561
      3 O1         -1.3211   -0.6158    0.0081 O.3       1 <0>        -0.2978
      4 C3         -1.2104   -1.6663    0.8742 C.ar      1 <0>         0.0185
      5 C4         -2.1459   -2.2892    1.6845 C.ar      1 <0>        -0.0808
      6 C5         -1.7722   -3.3523    2.4842 C.ar      1 <0>        -0.1105
      7 C6         -0.4576   -3.7990    2.4781 C.ar      1 <0>         0.1548
      8 C7          0.4826   -3.1778    1.6678 C.ar      1 <0>        -0.1296
      9 C8          0.1090   -2.1125    0.8656 C.ar      1 <0>         0.0539
     10 O2          0.8245   -1.3421   -0.0051 O.3       1 <0>        -0.2981
     11 N1         -0.0801   -4.8764    3.2902 N.am      1 <0>        -0.6714
     12 C9         -0.9537   -5.8726    3.5371 C.2       1 <0>         0.5153
     13 O3         -2.0315   -5.8858    2.9810 O.2       1 <0>        -0.5152
     14 C10        -0.5912   -6.9701    4.5041 C.3       1 <0>        -0.1362
     15 C11        -1.7484   -7.9662    4.6022 C.3       1 <0>        -0.1179
     16 C12        -1.3804   -9.0805    5.5840 C.3       1 <0>         0.1174
     17 N2         -2.4885  -10.0342    5.6779 N.am      1 <0>        -0.7305
     18 C13        -2.3883  -11.1059    6.4890 C.2       1 <0>         0.5227
     19 O4         -1.3808  -11.2806    7.1413 O.2       1 <0>        -0.5373
     20 C14        -3.5281  -12.0870    6.5856 C.3       1 <0>        -0.0870
     21 C15        -3.1601  -13.2012    7.5674 C.3       1 <0>        -0.1291
     22 C16        -4.7824  -11.3644    7.0810 C.3       1 <0>        -0.1416
     23 C17        -3.7990  -12.6914    5.2064 C.3       1 <0>        -0.1417
     24 C18        -0.4409   -1.5161   -2.0862 C.3       1 <0>        -0.1850
     25 H1          1.2501    0.6464   -1.7767 H         1 <0>         0.0894
     26 H2         -0.4404    1.2011   -1.8305 H         1 <0>         0.0897
     27 H3          0.4822    1.3043   -0.3118 H         1 <0>         0.0773
     28 H4         -3.1689   -1.9430    1.6913 H         1 <0>         0.1399
     29 H5         -2.5034   -3.8360    3.1149 H         1 <0>         0.1485
     30 H6          1.5053   -3.5249    1.6631 H         1 <0>         0.1384
     31 H7          0.8099   -4.9054    3.6747 H         1 <0>         0.4145
     32 H8          0.3024   -7.4849    4.1512 H         1 <0>         0.1028
     33 H9         -0.3982   -6.5395    5.4867 H         1 <0>         0.1043
     34 H10        -2.6420   -7.4514    4.9551 H         1 <0>         0.0799
     35 H11        -1.9414   -8.3968    3.6196 H         1 <0>         0.0797
     36 H12        -0.4868   -9.5953    5.2310 H         1 <0>         0.0693
     37 H13        -1.1875   -8.6499    6.5666 H         1 <0>         0.0695
     38 H14        -3.2942   -9.8944    5.1562 H         1 <0>         0.4018
     39 H15        -2.9671  -12.7706    8.5500 H         1 <0>         0.0624
     40 H16        -3.9845  -13.9108    7.6372 H         1 <0>         0.0629
     41 H17        -2.2665  -13.7160    7.2144 H         1 <0>         0.0623
     42 H18        -5.0446  -10.5706    6.3816 H         1 <0>         0.0596
     43 H19        -5.6068  -12.0740    7.1509 H         1 <0>         0.0703
     44 H20        -4.5894  -10.9338    8.0636 H         1 <0>         0.0615
     45 H21        -2.9054  -13.2062    4.8534 H         1 <0>         0.0614
     46 H22        -4.6234  -13.4010    5.2762 H         1 <0>         0.0703
     47 H23        -4.0611  -11.8976    4.5069 H         1 <0>         0.0595
     48 H24         0.4678   -1.5989   -2.6825 H         1 <0>         0.0866
     49 H25        -0.7760   -2.5114   -1.7945 H         1 <0>         0.0690
     50 H26        -1.2184   -1.0288   -2.6745 H         1 <0>         0.0873
@<TRIPOS>BOND
     1    1    2 1
     2    1   25 1
     3    1   26 1
     4    1   27 1
     5    2   10 1
     6    2    3 1
     7    2   24 1
     8    3    4 1
     9    4    9 ar
    10    4    5 ar
    11    5    6 ar
    12    5   28 1
    13    6    7 ar
    14    6   29 1
    15    7    8 ar
    16    7   11 1
    17    8    9 ar
    18    8   30 1
    19    9   10 1
    20   11   12 am
    21   11   31 1
    22   12   13 2
    23   12   14 1
    24   14   15 1
    25   14   32 1
    26   14   33 1
    27   15   16 1
    28   15   34 1
    29   15   35 1
    30   16   17 1
    31   16   36 1
    32   16   37 1
    33   17   18 am
    34   17   38 1
    35   18   19 2
    36   18   20 1
    37   20   21 1
    38   20   22 1
    39   20   23 1
    40   21   39 1
    41   21   40 1
    42   21   41 1
    43   22   42 1
    44   22   43 1
    45   22   44 1
    46   23   45 1
    47   23   46 1
    48   23   47 1
    49   24   48 1
    50   24   49 1
    51   24   50 1
@<TRIPOS>MOLECULE
ZINC66511758
   53    55     0     0     0
SMALL
USER_CHARGES

@<TRIPOS>ATOM
      1 C1         -2.7797   -6.4564   -2.6834 C.3       1 <0>        -0.1536
      2 C2         -2.9326   -6.2471   -1.1755 C.3       1 <0>        -0.1179
      3 C3         -1.6009   -6.5413   -0.4821 C.3       1 <0>         0.1242
      4 C4         -1.6932   -6.2387    1.0003 C.2       1 <0>         0.5366
      5 O1         -2.4296   -6.7606    1.8097 O.2       1 <0>        -0.4598
      6 N1         -0.7859   -5.2694    1.2316 N.am      1 <0>        -0.5608
      7 C5         -0.1398   -4.9212    0.1129 C.2       1 <0>         0.7096
      8 O2          0.7249   -4.0682    0.0698 O.2       1 <0>        -0.5388
      9 N2         -0.5540   -5.6210   -0.9587 N.am      1 <0>        -0.7164
     10 C6         -0.5381   -4.6705    2.5454 C.3       1 <0>         0.0971
     11 C7          0.5341   -5.4523    3.2597 C.2       1 <0>         0.5012
     12 O3          1.0413   -6.4150    2.7241 O.2       1 <0>        -0.5077
     13 N3          0.9293   -5.0817    4.4938 N.am      1 <0>        -0.7191
     14 C8          1.8918   -5.9030    5.2322 C.3       1 <0>         0.2176
     15 C9          2.0287   -5.3846    6.6787 C.3       1 <0>        -0.1193
     16 C10         1.0560   -6.2724    7.4941 C.3       1 <0>        -0.1241
     17 C11         1.2274   -7.6630    6.8338 C.3       1 <0>        -0.1272
     18 C12         1.3823   -7.3516    5.3308 C.3       1 <0>        -0.1198
     19 C13         3.2315   -5.8728    4.5429 C.ar      1 <0>        -0.0724
     20 C14         4.1587   -6.8682    4.7900 C.ar      1 <0>        -0.1180
     21 C15         5.3874   -6.8405    4.1579 C.ar      1 <0>        -0.1144
     22 C16         5.6893   -5.8176    3.2780 C.ar      1 <0>        -0.1237
     23 C17         4.7621   -4.8230    3.0303 C.ar      1 <0>        -0.0821
     24 C18         3.5313   -4.8531    3.6594 C.ar      1 <0>        -0.1012
     25 C19         5.0913   -3.7078    2.0717 C.3       1 <0>        -0.1140
     26 C20        -1.1852   -7.9955   -0.7132 C.3       1 <0>        -0.1497
     27 H1         -2.4882   -7.4883   -2.8793 H         1 <0>         0.0649
     28 H2         -3.7284   -6.2468   -3.1774 H         1 <0>         0.0671
     29 H3         -2.0134   -5.7832   -3.0678 H         1 <0>         0.0570
     30 H4         -3.2241   -5.2152   -0.9796 H         1 <0>         0.0738
     31 H5         -3.6989   -6.9202   -0.7911 H         1 <0>         0.0910
     32 H6         -0.2268   -5.5364   -1.8680 H         1 <0>         0.4400
     33 H7         -0.2116   -3.6383    2.4184 H         1 <0>         0.1266
     34 H8         -1.4558   -4.6916    3.1332 H         1 <0>         0.1259
     35 H9          0.5765   -4.2711    4.8931 H         1 <0>         0.4019
     36 H10         3.0510   -5.5124    7.0346 H         1 <0>         0.0856
     37 H11         1.7310   -4.3378    6.7386 H         1 <0>         0.0755
     38 H12         1.3494   -6.3042    8.5433 H         1 <0>         0.0726
     39 H13         0.0303   -5.9188    7.3892 H         1 <0>         0.0696
     40 H14         2.1203   -8.1587    7.2146 H         1 <0>         0.0684
     41 H15         0.3448   -8.2788    7.0068 H         1 <0>         0.0690
     42 H16         0.4189   -7.4435    4.8292 H         1 <0>         0.0717
     43 H17         2.1044   -8.0329    4.8809 H         1 <0>         0.0783
     44 H18         3.9229   -7.6673    5.4773 H         1 <0>         0.1214
     45 H19         6.1119   -7.6177    4.3514 H         1 <0>         0.1214
     46 H20         6.6497   -5.7956    2.7846 H         1 <0>         0.1195
     47 H21         2.8054   -4.0779    3.4630 H         1 <0>         0.1140
     48 H22         4.7848   -3.9918    1.0649 H         1 <0>         0.0705
     49 H23         4.5620   -2.8032    2.3710 H         1 <0>         0.0642
     50 H24         6.1652   -3.5218    2.0857 H         1 <0>         0.0654
     51 H25        -1.0749   -8.1763   -1.7824 H         1 <0>         0.0830
     52 H26        -0.2359   -8.1859   -0.2126 H         1 <0>         0.0710
     53 H27        -1.9488   -8.6602   -0.3092 H         1 <0>         0.0843
@<TRIPOS>BOND
     1    1    2 1
     2    1   27 1
     3    1   28 1
     4    1   29 1
     5    2    3 1
     6    2   30 1
     7    2   31 1
     8    3    9 1
     9    3    4 1
    10    3   26 1
    11    4    5 2
    12    4    6 am
    13    6    7 am
    14    6   10 1
    15    7    8 2
    16    7    9 am
    17    9   32 1
    18   10   11 1
    19   10   33 1
    20   10   34 1
    21   11   12 2
    22   11   13 am
    23   13   14 1
    24   13   35 1
    25   14   18 1
    26   14   15 1
    27   14   19 1
    28   15   16 1
    29   15   36 1
    30   15   37 1
    31   16   17 1
    32   16   38 1
    33   16   39 1
    34   17   18 1
    35   17   40 1
    36   17   41 1
    37   18   42 1
    38   18   43 1
    39   19   24 ar
    40   19   20 ar
    41   20   21 ar
    42   20   44 1
    43   21   22 ar
    44   21   45 1
    45   22   23 ar
    46   22   46 1
    47   23   24 ar
    48   23   25 1
    49   24   47 1
    50   25   48 1
    51   25   49 1
    52   25   50 1
    53   26   51 1
    54   26   52 1
    55   26   53 1
@<TRIPOS>MOLECULE
ZINC02991410
   47    50     0     0     0
SMALL
USER_CHARGES
3-methyl-N-[[2-methyl-3-(7-oxa-2,9-diazabicyclo[4.3.0]nona-1,3,5,8-tetraen-8-yl)phenyl]thiocarbamoyl]benzamide
@<TRIPOS>ATOM
      1 C1         -6.5991    3.2979   -3.2503 C.3       1 <0>        -0.1191
      2 C2         -5.4637    3.6720   -2.3327 C.ar      1 <0>        -0.0874
      3 C3         -5.5973    4.7473   -1.4719 C.ar      1 <0>        -0.0887
      4 C4         -4.5600    5.0975   -0.6262 C.ar      1 <0>        -0.1189
      5 C5         -3.3863    4.3722   -0.6319 C.ar      1 <0>        -0.0969
      6 C6         -3.2428    3.2897   -1.5015 C.ar      1 <0>        -0.1337
      7 C7         -4.2938    2.9416   -2.3524 C.ar      1 <0>        -0.0540
      8 C8         -1.9866    2.5117   -1.5172 C.2       1 <0>         0.5359
      9 O1         -1.8664    1.5668   -2.2717 O.2       1 <0>        -0.3988
     10 N1         -0.9740    2.8503   -0.6946 N.am      1 <0>        -0.6384
     11 C9          0.1718    2.1408   -0.7089 C.2       1 <0>         0.5094
     12 S1          0.3411    0.8095   -1.7719 S.2       1 <0>        -0.4763
     13 N2          1.1864    2.4828    0.1097 N.pl3     1 <0>        -0.6153
     14 C10         2.3550    1.7140    0.1340 C.ar      1 <0>         0.1138
     15 C11         2.2778    0.3289    0.0461 C.ar      1 <0>        -0.0385
     16 C12         3.4293   -0.4351    0.0693 C.ar      1 <0>        -0.1183
     17 C13         4.6638    0.1722    0.1804 C.ar      1 <0>        -0.0593
     18 C14         4.7522    1.5625    0.2698 C.ar      1 <0>        -0.0405
     19 C15         3.5902    2.3339    0.2401 C.ar      1 <0>        -0.0279
     20 C16         3.6772    3.8357    0.3294 C.3       1 <0>        -0.1207
     21 C17         6.0729    2.2154    0.3888 C.2       1 <0>         0.3283
     22 N3          6.3698    3.1577    1.2486 N.2       1 <0>        -0.4548
     23 C18         7.6658    3.5189    1.0734 C.ar      1 <0>         0.2324
     24 C19         8.1637    2.7228    0.0272 C.ar      1 <0>        -0.0481
     25 O2          7.1483    1.9248   -0.3667 O.3       1 <0>        -0.1980
     26 C20         9.4824    2.8764   -0.3745 C.ar      1 <0>        -0.0377
     27 C21        10.2619    3.8175    0.2788 C.ar      1 <0>        -0.1527
     28 C22         9.7091    4.5695    1.3022 C.ar      1 <0>         0.1290
     29 N4          8.4553    4.4089    1.6688 N.ar      1 <0>        -0.4401
     30 H1         -7.2509    2.5826   -2.7488 H         1 <0>         0.0761
     31 H2         -7.1688    4.1912   -3.5063 H         1 <0>         0.0711
     32 H3         -6.1988    2.8493   -4.1595 H         1 <0>         0.0722
     33 H4         -6.5158    5.3154   -1.4599 H         1 <0>         0.1311
     34 H5         -4.6709    5.9376    0.0434 H         1 <0>         0.1327
     35 H6         -2.5790    4.6437    0.0321 H         1 <0>         0.1216
     36 H7         -4.1908    2.1027   -3.0247 H         1 <0>         0.1410
     37 H8         -1.0699    3.6046   -0.0923 H         1 <0>         0.4105
     38 H9          1.1064    3.2619    0.6819 H         1 <0>         0.4102
     39 H10         1.3146   -0.1520   -0.0410 H         1 <0>         0.1576
     40 H11         3.3630   -1.5108   -0.0000 H         1 <0>         0.1430
     41 H12         5.5614   -0.4282    0.1978 H         1 <0>         0.1361
     42 H13         3.5624    4.1452    1.3682 H         1 <0>         0.0879
     43 H14         4.6468    4.1662   -0.0432 H         1 <0>         0.0747
     44 H15         2.8854    4.2819   -0.2723 H         1 <0>         0.0653
     45 H16         9.8909    2.2780   -1.1754 H         1 <0>         0.1502
     46 H17        11.2930    3.9634   -0.0078 H         1 <0>         0.1580
     47 H18        10.3191    5.3021    1.8098 H         1 <0>         0.1758
@<TRIPOS>BOND
     1    1    2 1
     2    1   30 1
     3    1   31 1
     4    1   32 1
     5    2    7 ar
     6    2    3 ar
     7    3    4 ar
     8    3   33 1
     9    4    5 ar
    10    4   34 1
    11    5    6 ar
    12    5   35 1
    13    6    7 ar
    14    6    8 1
    15    7   36 1
    16    8    9 2
    17    8   10 am
    18   10   11 1
    19   10   37 1
    20   11   12 2
    21   11   13 1
    22   13   14 1
    23   13   38 1
    24   14   19 ar
    25   14   15 ar
    26   15   16 ar
    27   15   39 1
    28   16   17 ar
    29   16   40 1
    30   17   18 ar
    31   17   41 1
    32   18   19 ar
    33   18   21 1
    34   19   20 1
    35   20   42 1
    36   20   43 1
    37   20   44 1
    38   21   25 1
    39   21   22 2
    40   22   23 1
    41   23   29 ar
    42   23   24 ar
    43   24   25 1
    44   24   26 ar
    45   26   27 ar
    46   26   45 1
    47   27   28 ar
    48   27   46 1
    49   28   29 ar
    50   28   47 1
@<TRIPOS>MOLECULE
ZINC12322850
   64    67     0     0     0
SMALL
USER_CHARGES
(4aR,8aR)-8a-hydroxy-1-[(3,4,5-trimethoxyphenyl)methyl]spiro[3,4a,5,6,7,8-hexahydroquinazoline-4,1'-cyclohexane]-2-thione
@<TRIPOS>ATOM
      1 C1          7.2760    1.5167    0.1170 C.3       1 <0>         0.0243
      2 O1          7.2251    0.4067   -0.7814 O.3       1 <0>        -0.3015
      3 C2          6.1951   -0.4674   -0.6251 C.ar      1 <0>         0.1397
      4 C3          5.2539   -0.2602    0.3719 C.ar      1 <0>        -0.2364
      5 C4          4.2060   -1.1476    0.5310 C.ar      1 <0>        -0.0405
      6 C5          4.0952   -2.2478   -0.2985 C.ar      1 <0>        -0.1992
      7 C6          5.0292   -2.4594   -1.3013 C.ar      1 <0>         0.1440
      8 C7          6.0840   -1.5693   -1.4648 C.ar      1 <0>         0.0347
      9 O2          7.0054   -1.7759   -2.4448 O.3       1 <0>        -0.3142
     10 C8          8.1498   -2.5610   -2.1043 C.3       1 <0>         0.0362
     11 O3          4.9159   -3.5389   -2.1207 O.3       1 <0>        -0.3032
     12 C9          3.8069   -4.4113   -1.8948 C.3       1 <0>         0.0250
     13 C10         3.1852   -0.9183    1.6156 C.3       1 <0>         0.1457
     14 N1          2.0903   -0.0989    1.0903 N.pl3     1 <0>        -0.5699
     15 C11         1.0275   -0.6944    0.5236 C.2       1 <0>         0.5876
     16 S1          0.9796   -2.4047    0.4651 S.2       1 <0>        -0.6630
     17 N2          0.0021   -0.0041    0.0020 N.pl3     1 <0>        -0.6555
     18 C12        -0.0178    1.4607    0.0101 C.3       1 <0>         0.1598
     19 C13        -0.7301    1.9560    1.2697 C.3       1 <0>        -0.1364
     20 C14        -2.1678    1.4325    1.2811 C.3       1 <0>        -0.1229
     21 C15        -2.9064    1.9430    0.0422 C.3       1 <0>        -0.1225
     22 C16        -2.1933    1.4471   -1.2173 C.3       1 <0>        -0.1226
     23 C17        -0.7553    1.9700   -1.2290 C.3       1 <0>        -0.1225
     24 C18         1.4223    1.9760   -0.0009 C.3       1 <0>        -0.0830
     25 H1          1.9091    1.6791   -0.9299 H         1 <0>         0.0946
     26 C19         2.1664    1.3579    1.1880 C.3       1 <0>         0.3372
     27 C20         3.6216    1.8236    1.1647 C.3       1 <0>        -0.1597
     28 C21         3.6612    3.3497    1.2864 C.3       1 <0>        -0.1144
     29 C22         2.8974    3.9813    0.1217 C.3       1 <0>        -0.1230
     30 C23         1.4444    3.4984    0.1318 C.3       1 <0>        -0.1078
     31 O4          1.5533    1.7851    2.4061 O.3       1 <0>        -0.5386
     32 H2          6.3686    2.1114    0.0115 H         1 <0>         0.0545
     33 H3          7.3542    1.1520    1.1412 H         1 <0>         0.0559
     34 H4          8.1439    2.1335   -0.1163 H         1 <0>         0.1033
     35 H5          5.3395    0.5958    1.0248 H         1 <0>         0.1426
     36 H6          3.2777   -2.9414   -0.1679 H         1 <0>         0.1673
     37 H7          7.8287   -3.5541   -1.7901 H         1 <0>         0.0448
     38 H8          8.8023   -2.6481   -2.9730 H         1 <0>         0.0924
     39 H9          8.6914   -2.0797   -1.2899 H         1 <0>         0.0436
     40 H10         3.8352   -5.2289   -2.6150 H         1 <0>         0.1009
     41 H11         3.8625   -4.8154   -0.8840 H         1 <0>         0.0582
     42 H12         2.8771   -3.8549   -2.0130 H         1 <0>         0.0643
     43 H13         3.6548   -0.4032    2.4535 H         1 <0>         0.0914
     44 H14         2.7918   -1.8772    1.9529 H         1 <0>         0.1290
     45 H15        -0.7431   -0.4859   -0.3897 H         1 <0>         0.4287
     46 H16        -0.2037    1.5916    2.1519 H         1 <0>         0.1079
     47 H17        -0.7402    3.0459    1.2767 H         1 <0>         0.0775
     48 H18        -2.6761    1.7857    2.1783 H         1 <0>         0.0661
     49 H19        -2.1577    0.3425    1.2746 H         1 <0>         0.0602
     50 H20        -2.9166    3.0329    0.0487 H         1 <0>         0.0649
     51 H21        -3.9306    1.5700    0.0505 H         1 <0>         0.0652
     52 H22        -2.7194    1.8112   -2.0998 H         1 <0>         0.0728
     53 H23        -2.1836    0.3572   -1.2240 H         1 <0>         0.0603
     54 H24        -0.7649    3.0599   -1.2238 H         1 <0>         0.0873
     55 H25        -0.2470    1.6154   -2.1257 H         1 <0>         0.0716
     56 H26         4.1603    1.3779    2.0009 H         1 <0>         0.0798
     57 H27         4.0865    1.5197    0.2269 H         1 <0>         0.0960
     58 H28         4.6972    3.6879    1.2661 H         1 <0>         0.0707
     59 H29         3.2003    3.6500    2.2274 H         1 <0>         0.0758
     60 H30         3.3681    3.6941   -0.8185 H         1 <0>         0.0634
     61 H31         2.9192    5.0666    0.2201 H         1 <0>         0.0733
     62 H32         0.9061    3.9449   -0.7042 H         1 <0>         0.0750
     63 H33         0.9702    3.7894    1.0692 H         1 <0>         0.0863
     64 H34         1.9661    1.4234    3.2022 H         1 <0>         0.3770
@<TRIPOS>BOND
     1    1    2 1
     2    1   32 1
     3    1   33 1
     4    1   34 1
     5    2    3 1
     6    3    8 ar
     7    3    4 ar
     8    4    5 ar
     9    4   35 1
    10    5    6 ar
    11    5   13 1
    12    6    7 ar
    13    6   36 1
    14    7    8 ar
    15    7   11 1
    16    8    9 1
    17    9   10 1
    18   10   37 1
    19   10   38 1
    20   10   39 1
    21   11   12 1
    22   12   40 1
    23   12   41 1
    24   12   42 1
    25   13   14 1
    26   13   43 1
    27   13   44 1
    28   14   26 1
    29   14   15 1
    30   15   16 2
    31   15   17 1
    32   17   18 1
    33   17   45 1
    34   18   23 1
    35   18   19 1
    36   18   24 1
    37   19   20 1
    38   19   46 1
    39   19   47 1
    40   20   21 1
    41   20   48 1
    42   20   49 1
    43   21   22 1
    44   21   50 1
    45   21   51 1
    46   22   23 1
    47   22   52 1
    48   22   53 1
    49   23   54 1
    50   23   55 1
    51   24   25 1
    52   24   30 1
    53   24   26 1
    54   26   27 1
    55   26   31 1
    56   27   28 1
    57   27   56 1
    58   27   57 1
    59   28   29 1
    60   28   58 1
    61   28   59 1
    62   29   30 1
    63   29   60 1
    64   29   61 1
    65   30   62 1
    66   30   63 1
    67   31   64 1
@<TRIPOS>MOLECULE
ZINC25392960
   49    51     0     0     0
SMALL
USER_CHARGES
3-[3-(1-piperidylsulfonyl)phenyl]-1-[3-(trifluoromethyl)phenyl]urea
@<TRIPOS>ATOM
      1 C1         10.3717   -1.8909   -5.7510 C.ar      1 <0>        -0.0990
      2 C2         10.8101   -1.1074   -6.8030 C.ar      1 <0>        -0.0851
      3 C3         10.3493    0.1887   -6.9425 C.ar      1 <0>        -0.1637
      4 C4          9.4491    0.7051   -6.0308 C.ar      1 <0>        -0.0991
      5 C5          9.0068   -0.0791   -4.9738 C.ar      1 <0>         0.1666
      6 C6          9.4752   -1.3791   -4.8338 C.ar      1 <0>        -0.0896
      7 N1          8.0953    0.4412   -4.0482 N.am      1 <0>        -0.6931
      8 C7          7.1561   -0.3582   -3.5048 C.2       1 <0>         0.7110
      9 O1          7.1529   -1.5484   -3.7536 O.2       1 <0>        -0.5610
     10 N2          6.2205    0.1615   -2.6857 N.am      1 <0>        -0.6934
     11 C8          5.3052   -0.6812   -2.0452 C.ar      1 <0>         0.1485
     12 C9          4.8344   -1.8167   -2.6916 C.ar      1 <0>        -0.0659
     13 C10         3.9316   -2.6466   -2.0566 C.ar      1 <0>        -0.1184
     14 C11         3.5001   -2.3507   -0.7763 C.ar      1 <0>        -0.0345
     15 C12         3.9629   -1.2182   -0.1322 C.ar      1 <0>        -0.6567
     16 C13         4.8661   -0.3841   -0.7619 C.ar      1 <0>        -0.0483
     17 S1          3.4054   -0.8425    1.4966 S.o2      1 <0>         2.6908
     18 O2          4.4065   -0.0273    2.0905 O.2       1 <0>        -0.9539
     19 O3          2.9809   -2.0696    2.0737 O.2       1 <0>        -0.9513
     20 N3          2.0538    0.1023    1.3457 N.pl3     1 <0>        -0.9952
     21 C14         0.7191   -0.5073    1.2690 C.3       1 <0>         0.1164
     22 C15         0.0093    0.0160    0.0163 C.3       1 <0>        -0.1368
     23 C16         0.0009    1.5462    0.0413 C.3       1 <0>        -0.1194
     24 C17         1.4403    2.0661    0.0336 C.3       1 <0>        -0.1361
     25 C18         2.1663    1.5660    1.2864 C.3       1 <0>         0.1172
     26 C19        10.8300    1.0391   -8.0900 C.3       1 <0>         0.5101
     27 F1         11.9792    1.7372   -7.7037 F         1 <0>        -0.1751
     28 F2         11.1277    0.2202   -9.1845 F         1 <0>        -0.1746
     29 F3          9.8294    1.9493   -8.4470 F         1 <0>        -0.1771
     30 H1         10.7338   -2.9028   -5.6446 H         1 <0>         0.1402
     31 H2         11.5141   -1.5087   -7.5169 H         1 <0>         0.1384
     32 H3          9.0896    1.7176   -6.1402 H         1 <0>         0.1392
     33 H4          9.1361   -1.9901   -4.0103 H         1 <0>         0.1496
     34 H5          8.1453    1.5027   -3.7641 H         1 <0>         0.4359
     35 H6          6.1764    1.2481   -2.5206 H         1 <0>         0.4351
     36 H7          5.1744   -2.0507   -3.6896 H         1 <0>         0.1487
     37 H8          3.5654   -3.5299   -2.5586 H         1 <0>         0.1377
     38 H9          2.7971   -3.0035   -0.2803 H         1 <0>         0.1410
     39 H10         5.2301    0.4984   -0.2567 H         1 <0>         0.1416
     40 H11         0.8184   -1.6013    1.2118 H         1 <0>         0.0922
     41 H12         0.1409   -0.2380    2.1652 H         1 <0>         0.0779
     42 H13         0.5417   -0.3346   -0.8802 H         1 <0>         0.0677
     43 H14        -1.0252   -0.3575   -0.0020 H         1 <0>         0.0775
     44 H15        -0.5297    1.9245   -0.8449 H         1 <0>         0.0657
     45 H16        -0.5096    1.8953    0.9510 H         1 <0>         0.0665
     46 H17         1.9585    1.6975   -0.8640 H         1 <0>         0.0666
     47 H18         1.4328    3.1661    0.0269 H         1 <0>         0.0768
     48 H19         1.7070    2.0057    2.1840 H         1 <0>         0.0778
     49 H20         3.2279    1.8506    1.2408 H         1 <0>         0.0905
@<TRIPOS>BOND
     1    1    6 ar
     2    1    2 ar
     3    1   30 1
     4    2    3 ar
     5    2   31 1
     6    3    4 ar
     7    3   26 1
     8    4    5 ar
     9    4   32 1
    10    5    6 ar
    11    5    7 1
    12    6   33 1
    13    7    8 am
    14    7   34 1
    15    8    9 2
    16    8   10 am
    17   10   11 1
    18   10   35 1
    19   11   16 ar
    20   11   12 ar
    21   12   13 ar
    22   12   36 1
    23   13   14 ar
    24   13   37 1
    25   14   15 ar
    26   14   38 1
    27   15   16 ar
    28   15   17 1
    29   16   39 1
    30   17   18 2
    31   17   19 2
    32   17   20 1
    33   20   25 1
    34   20   21 1
    35   21   22 1
    36   21   40 1
    37   21   41 1
    38   22   23 1
    39   22   42 1
    40   22   43 1
    41   23   24 1
    42   23   44 1
    43   23   45 1
    44   24   25 1
    45   24   46 1
    46   24   47 1
    47   25   48 1
    48   25   49 1
    49   26   27 1
    50   26   28 1
    51   26   29 1
@<TRIPOS>MOLECULE
ZINC39920255
   46    48     0     0     0
SMALL
USER_CHARGES

@<TRIPOS>ATOM
      1 C1         -0.0187    1.5258    0.0104 C.3       1 <0>        -0.1474
      2 C2          0.0021   -0.0041    0.0020 C.3       1 <0>        -0.1493
      3 C3          0.7421   -0.5109    1.2415 C.3       1 <0>         0.3856
      4 H1          1.7345   -0.0617    1.2782 H         1 <0>         0.1093
      5 N1         -0.0081   -0.1309    2.4447 N.pl3     1 <0>        -0.7371
      6 C4         -1.1577   -0.8456    2.7641 C.ar      1 <0>         0.2397
      7 C5         -2.2169   -0.2657    3.4405 C.ar      1 <0>        -0.1670
      8 C6         -3.3382   -1.0193    3.7304 C.ar      1 <0>        -0.0387
      9 C7         -3.4105   -2.3509    3.3489 C.ar      1 <0>        -0.0857
     10 C8         -2.3622   -2.9444    2.6746 C.ar      1 <0>        -0.0076
     11 C9         -1.2258   -2.1960    2.3780 C.ar      1 <0>        -0.1823
     12 C10        -0.0743   -2.7818    1.6680 C.2       1 <0>         0.5813
     13 O1          0.0187   -3.9871    1.5368 O.2       1 <0>        -0.5089
     14 N2          0.8716   -1.9660    1.1670 N.am      1 <0>        -0.4180
     15 N3          2.0037   -2.5254    0.5603 N.am      1 <0>        -0.5162
     16 C11         2.9726   -3.0751    1.3189 C.2       1 <0>         0.5192
     17 O2          2.8645   -3.0855    2.5268 O.2       1 <0>        -0.4881
     18 C12         4.1903   -3.6769    0.6662 C.3       1 <0>         0.0505
     19 O3          5.0651   -4.1910    1.6724 O.3       1 <0>        -0.2821
     20 C13         6.2187   -4.7718    1.2491 C.ar      1 <0>         0.1305
     21 C14         6.5052   -4.8402   -0.1068 C.ar      1 <0>        -0.1941
     22 C15         7.6779   -5.4309   -0.5350 C.ar      1 <0>        -0.0749
     23 C16         8.5668   -5.9548    0.3872 C.ar      1 <0>        -0.0654
     24 C17         8.2828   -5.8880    1.7396 C.ar      1 <0>        -0.0730
     25 C18         7.1138   -5.2919    2.1722 C.ar      1 <0>        -0.0951
     26 C19         6.8082   -5.2130    3.6458 C.3       1 <0>        -0.1097
     27 Cl1        10.0399   -6.6972   -0.1535 Cl        1 <0>        -0.0671
     28 Cl2        -4.8297   -3.2782    3.7225 Cl        1 <0>        -0.0616
     29 H2          1.0039    1.9031    0.0027 H         1 <0>         0.0579
     30 H3         -0.5459    1.8868   -0.8726 H         1 <0>         0.0645
     31 H4         -0.5289    1.8773    0.9072 H         1 <0>         0.0614
     32 H5         -1.0205   -0.3814    0.0098 H         1 <0>         0.0747
     33 H6          0.5123   -0.3556   -0.8948 H         1 <0>         0.0794
     34 H7          0.2911    0.6027    3.0045 H         1 <0>         0.4192
     35 H8         -2.1670    0.7706    3.7405 H         1 <0>         0.1429
     36 H9         -4.1649   -0.5679    4.2588 H         1 <0>         0.1428
     37 H10        -2.4227   -3.9816    2.3796 H         1 <0>         0.1474
     38 H11         2.0901   -2.5171   -0.4058 H         1 <0>         0.4205
     39 H12         3.8846   -4.4858    0.0027 H         1 <0>         0.1027
     40 H13         4.7096   -2.9110    0.0900 H         1 <0>         0.1014
     41 H14         5.8114   -4.4321   -0.8269 H         1 <0>         0.1381
     42 H15         7.9012   -5.4843   -1.5903 H         1 <0>         0.1380
     43 H16         8.9775   -6.2977    2.4578 H         1 <0>         0.1423
     44 H17         6.2580   -6.1030    3.9510 H         1 <0>         0.0743
     45 H18         7.7404   -5.1518    4.2074 H         1 <0>         0.0696
     46 H19         6.2053   -4.3270    3.8449 H         1 <0>         0.0763
@<TRIPOS>BOND
     1    1    2 1
     2    1   29 1
     3    1   30 1
     4    1   31 1
     5    2    3 1
     6    2   32 1
     7    2   33 1
     8    3    4 1
     9    3   14 1
    10    3    5 1
    11    5    6 1
    12    5   34 1
    13    6   11 ar
    14    6    7 ar
    15    7    8 ar
    16    7   35 1
    17    8    9 ar
    18    8   36 1
    19    9   10 ar
    20    9   28 1
    21   10   11 ar
    22   10   37 1
    23   11   12 1
    24   12   13 2
    25   12   14 am
    26   14   15 1
    27   15   16 am
    28   15   38 1
    29   16   17 2
    30   16   18 1
    31   18   19 1
    32   18   39 1
    33   18   40 1
    34   19   20 1
    35   20   25 ar
    36   20   21 ar
    37   21   22 ar
    38   21   41 1
    39   22   23 ar
    40   22   42 1
    41   23   24 ar
    42   23   27 1
    43   24   25 ar
    44   24   43 1
    45   25   26 1
    46   26   44 1
    47   26   45 1
    48   26   46 1
@<TRIPOS>MOLECULE
ZINC25015126
   50    53     0     0     0
SMALL
USER_CHARGES

@<TRIPOS>ATOM
      1 C1          0.0242    1.5032    0.0053 C.3       1 <0>        -0.1145
      2 C2          0.0333   -0.0038   -0.0015 C.ar      1 <0>        -0.0929
      3 C3          0.6314   -0.6855   -1.0457 C.ar      1 <0>        -0.1080
      4 C4          0.6410   -2.0662   -1.0552 C.ar      1 <0>        -0.1099
      5 C5          0.0496   -2.7706   -0.0142 C.ar      1 <0>         0.1349
      6 C6         -0.5497   -2.0830    1.0331 C.ar      1 <0>        -0.1035
      7 C7         -0.5514   -0.7018    1.0390 C.ar      1 <0>        -0.1041
      8 C8         -1.1930   -2.8430    2.1643 C.3       1 <0>        -0.1180
      9 N1          0.0572   -4.1689   -0.0209 N.am      1 <0>        -0.6646
     10 C9         -0.0419   -4.8377   -1.1868 C.2       1 <0>         0.6118
     11 O1         -0.0553   -4.2269   -2.2395 O.2       1 <0>        -0.4969
     12 C10        -0.1334   -6.3008   -1.1871 C.2       1 <0>        -0.2581
     13 C11        -0.2330   -7.1475   -2.2522 C.2       1 <0>         0.0412
     14 C12        -0.3095   -8.5259   -2.0397 C.2       1 <0>        -0.2587
     15 C13        -0.4217   -9.6206   -3.0302 C.2       1 <0>         0.5653
     16 O2         -0.4590   -9.3817   -4.2242 O.2       1 <0>        -0.4955
     17 N2         -0.4811  -10.8881   -2.5769 N.am      1 <0>        -0.6299
     18 H1         -0.5547  -11.6169   -3.2127 H         1 <0>         0.4270
     19 C14        -0.4395  -11.1657   -1.2505 C.2       1 <0>         0.4434
     20 N3         -0.3413  -10.2247   -0.3512 N.2       1 <0>        -0.4827
     21 C15        -0.2761   -8.9433   -0.6895 C.2       1 <0>         0.1299
     22 S1         -0.1343   -7.4171    0.2056 S.3       1 <0>         0.1956
     23 C16        -0.5092  -12.6025   -0.8013 C.3       1 <0>        -0.0819
     24 S2         -0.4333  -12.6742    1.0097 S.3       1 <0>         0.0333
     25 C17        -0.5246  -14.3961    1.3724 C.ar      1 <0>         0.0951
     26 C18        -0.4984  -14.8246    2.6965 C.ar      1 <0>        -0.1467
     27 C19        -0.5708  -16.1787    2.9665 C.ar      1 <0>        -0.0558
     28 C20        -0.6675  -17.0633    1.8998 C.ar      1 <0>        -0.1769
     29 C21        -0.6883  -16.5692    0.6112 C.ar      1 <0>         0.1147
     30 N4         -0.6231  -15.2711    0.3828 N.ar      1 <0>        -0.4977
     31 C22        -0.2610   -6.5969   -3.6547 C.3       1 <0>        -0.1248
     32 H2          0.9170    1.8696    0.5119 H         1 <0>         0.0705
     33 H3          0.0118    1.8711   -1.0207 H         1 <0>         0.0668
     34 H4         -0.8628    1.8588    0.5296 H         1 <0>         0.0660
     35 H5          1.0910   -0.1373   -1.8548 H         1 <0>         0.1260
     36 H6          1.1076   -2.5980   -1.8713 H         1 <0>         0.1411
     37 H7         -1.0134   -0.1664    1.8553 H         1 <0>         0.1266
     38 H8         -0.4555   -3.0239    2.9462 H         1 <0>         0.0730
     39 H9         -2.0184   -2.2590    2.5714 H         1 <0>         0.0736
     40 H10        -1.5705   -3.7960    1.7934 H         1 <0>         0.0633
     41 H11         0.1337   -4.6575    0.8135 H         1 <0>         0.4085
     42 H12        -1.4446  -13.0452   -1.1435 H         1 <0>         0.1356
     43 H13         0.3302  -13.1560   -1.2223 H         1 <0>         0.1357
     44 H14        -0.4221  -14.1091    3.5019 H         1 <0>         0.1415
     45 H15        -0.5522  -16.5406    3.9839 H         1 <0>         0.1417
     46 H16        -0.7254  -18.1271    2.0770 H         1 <0>         0.1388
     47 H17        -0.7634  -17.2536   -0.2209 H         1 <0>         0.1601
     48 H18         0.7569   -6.5280   -4.0384 H         1 <0>         0.0818
     49 H19        -0.8460   -7.2587   -4.2933 H         1 <0>         0.0838
     50 H20        -0.7142   -5.6056   -3.6469 H         1 <0>         0.0946
@<TRIPOS>BOND
     1    1    2 1
     2    1   32 1
     3    1   33 1
     4    1   34 1
     5    2    7 ar
     6    2    3 ar
     7    3    4 ar
     8    3   35 1
     9    4    5 ar
    10    4   36 1
    11    5    6 ar
    12    5    9 1
    13    6    7 ar
    14    6    8 1
    15    7   37 1
    16    8   38 1
    17    8   39 1
    18    8   40 1
    19    9   10 am
    20    9   41 1
    21   10   11 2
    22   10   12 1
    23   12   22 1
    24   12   13 2
    25   13   14 1
    26   13   31 1
    27   14   21 2
    28   14   15 1
    29   15   16 2
    30   15   17 am
    31   17   18 1
    32   17   19 1
    33   19   20 2
    34   19   23 1
    35   20   21 1
    36   21   22 1
    37   23   24 1
    38   23   42 1
    39   23   43 1
    40   24   25 1
    41   25   30 ar
    42   25   26 ar
    43   26   27 ar
    44   26   44 1
    45   27   28 ar
    46   27   45 1
    47   28   29 ar
    48   28   46 1
    49   29   30 ar
    50   29   47 1
    51   31   48 1
    52   31   49 1
    53   31   50 1
@<TRIPOS>MOLECULE
ZINC00937609
   48    50     0     0     0
SMALL
USER_CHARGES
N-[6-(cyclohexylsulfamoyl)benzothiazol-2-yl]-2-methyl-propanamide
@<TRIPOS>ATOM
      1 C1          6.7797   -1.5121   -0.0707 C.3       1 <0>        -0.1375
      2 C2          6.6636    0.0135   -0.0613 C.3       1 <0>        -0.1057
      3 C3          7.3320    0.5836   -1.3139 C.3       1 <0>        -0.1504
      4 C4          5.2088    0.4065   -0.0451 C.2       1 <0>         0.5100
      5 O1          4.3496   -0.4492   -0.0414 O.2       1 <0>        -0.4567
      6 N1          4.8627    1.7090   -0.0346 N.am      1 <0>        -0.6176
      7 C5          3.5254    2.0703   -0.0197 C.2       1 <0>         0.3954
      8 N2          2.4640    1.2981   -0.0141 N.2       1 <0>        -0.5207
      9 C6          1.2070    1.7918    0.0002 C.ar      1 <0>         0.1654
     10 C7         -0.0126    1.0758    0.0080 C.ar      1 <0>        -0.0869
     11 C8         -1.2126    1.7371    0.0173 C.ar      1 <0>        -0.0121
     12 C9         -1.2768    3.1232    0.0302 C.ar      1 <0>        -0.6723
     13 C10        -0.1038    3.8553    0.0233 C.ar      1 <0>         0.0571
     14 C11         1.1030    3.2015    0.0087 C.ar      1 <0>        -0.1827
     15 S1          2.8063    3.7065   -0.0042 S.3       1 <0>         0.0248
     16 S2         -2.8369    3.9419    0.0484 S.o2      1 <0>         2.6984
     17 O2         -3.7702    3.0250    0.6030 O.2       1 <0>        -0.9487
     18 O3         -2.6129    5.2305    0.6038 O.2       1 <0>        -0.9552
     19 N3         -3.2847    4.1774   -1.5284 N.pl3     1 <0>        -1.1110
     20 C12        -3.5649    3.0262   -2.3901 C.3       1 <0>         0.1474
     21 C13        -2.3075    2.6648   -3.1833 C.3       1 <0>        -0.1424
     22 C14        -2.6002    1.4625   -4.0832 C.3       1 <0>        -0.1186
     23 C15        -3.7309    1.8140   -5.0521 C.3       1 <0>        -0.1230
     24 C16        -4.9884    2.1754   -4.2589 C.3       1 <0>        -0.1194
     25 C17        -4.6957    3.3777   -3.3590 C.3       1 <0>        -0.1220
     26 H1          6.2863   -1.9085   -0.9582 H         1 <0>         0.0657
     27 H2          7.8319   -1.7963   -0.0825 H         1 <0>         0.0705
     28 H3          6.3035   -1.9182    0.8217 H         1 <0>         0.0657
     29 H4          7.1570    0.4099    0.8262 H         1 <0>         0.1081
     30 H5          6.8386    0.1872   -2.2014 H         1 <0>         0.0655
     31 H6          7.2493    1.6705   -1.3072 H         1 <0>         0.0606
     32 H7          8.3842    0.2994   -1.3257 H         1 <0>         0.0780
     33 H8          5.5500    2.3935   -0.0375 H         1 <0>         0.4317
     34 H9          0.0021   -0.0041    0.0020 H         1 <0>         0.1447
     35 H10        -2.1296    1.1665    0.0186 H         1 <0>         0.1502
     36 H11        -0.1370    4.9348    0.0298 H         1 <0>         0.1509
     37 H12        -3.3614    5.0776   -1.8815 H         1 <0>         0.4201
     38 H13        -3.8637    2.1768   -1.7758 H         1 <0>         0.0945
     39 H14        -2.0088    3.5142   -3.7976 H         1 <0>         0.0715
     40 H15        -1.5019    2.4144   -2.4930 H         1 <0>         0.0674
     41 H16        -2.8989    0.6131   -3.4689 H         1 <0>         0.0662
     42 H17        -1.7044    1.2050   -4.6483 H         1 <0>         0.0659
     43 H18        -3.9394    0.9574   -5.6932 H         1 <0>         0.0647
     44 H19        -3.4322    2.6634   -5.6664 H         1 <0>         0.0631
     45 H20        -5.2871    1.3260   -3.6446 H         1 <0>         0.0671
     46 H21        -5.7939    2.4258   -4.9492 H         1 <0>         0.0686
     47 H22        -5.5915    3.6351   -2.7939 H         1 <0>         0.0734
     48 H23        -4.3969    4.2271   -3.9733 H         1 <0>         0.0705
@<TRIPOS>BOND
     1    1    2 1
     2    1   26 1
     3    1   27 1
     4    1   28 1
     5    2    3 1
     6    2    4 1
     7    2   29 1
     8    3   30 1
     9    3   31 1
    10    3   32 1
    11    4    5 2
    12    4    6 am
    13    6    7 1
    14    6   33 1
    15    7   15 1
    16    7    8 2
    17    8    9 1
    18    9   14 ar
    19    9   10 ar
    20   10   11 ar
    21   10   34 1
    22   11   12 ar
    23   11   35 1
    24   12   13 ar
    25   12   16 1
    26   13   14 ar
    27   13   36 1
    28   14   15 1
    29   16   17 2
    30   16   18 2
    31   16   19 1
    32   19   20 1
    33   19   37 1
    34   20   25 1
    35   20   21 1
    36   20   38 1
    37   21   22 1
    38   21   39 1
    39   21   40 1
    40   22   23 1
    41   22   41 1
    42   22   42 1
    43   23   24 1
    44   23   43 1
    45   23   44 1
    46   24   25 1
    47   24   45 1
    48   24   46 1
    49   25   47 1
    50   25   48 1
@<TRIPOS>MOLECULE
ZINC15191021
   56    58     0     0     0
SMALL
USER_CHARGES
N-(2-tert-butylphenyl)-3-(1,3-dioxo-2,4-diazaspiro[4.5]decan-2-yl)propanamide
@<TRIPOS>ATOM
      1 C1         -1.8892    2.1020    7.7564 C.3       1 <0>        -0.1419
      2 C2         -1.6111    1.9209    6.2628 C.3       1 <0>        -0.0312
      3 C3         -1.3769    3.2886    5.6182 C.3       1 <0>        -0.1495
      4 C4         -2.8115    1.2431    5.5991 C.3       1 <0>        -0.1519
      5 C5         -0.3856    1.0631    6.0804 C.ar      1 <0>        -0.1091
      6 C6          0.3074    0.6039    7.1836 C.ar      1 <0>        -0.0995
      7 C7          1.4313   -0.1839    7.0171 C.ar      1 <0>        -0.1406
      8 C8          1.8654   -0.5149    5.7463 C.ar      1 <0>        -0.1022
      9 C9          1.1742   -0.0630    4.6395 C.ar      1 <0>        -0.1658
     10 C10         0.0479    0.7330    4.8033 C.ar      1 <0>         0.1509
     11 N1         -0.6519    1.1966    3.6837 N.am      1 <0>        -0.6650
     12 C11        -0.2965    0.7871    2.4498 C.2       1 <0>         0.5206
     13 O1          0.6948    0.1047    2.2994 O.2       1 <0>        -0.5084
     14 C12        -1.1309    1.1771    1.2570 C.3       1 <0>        -0.1605
     15 C13        -0.5130    0.5874   -0.0124 C.3       1 <0>         0.1340
     16 N2         -1.3242    0.9666   -1.1719 N.am      1 <0>        -0.5780
     17 C14        -1.1289    2.0848   -1.9009 C.2       1 <0>         0.5297
     18 O2         -0.2815    2.9346   -1.7285 O.2       1 <0>        -0.4562
     19 C15        -2.1889    2.0548   -2.9781 C.3       1 <0>         0.1256
     20 C16        -1.5424    2.0090   -4.3582 C.3       1 <0>        -0.1151
     21 C17        -2.6309    1.9506   -5.4330 C.3       1 <0>        -0.1174
     22 C18        -3.5306    3.1825   -5.3134 C.3       1 <0>        -0.1257
     23 C19        -4.1906    3.2010   -3.9332 C.3       1 <0>        -0.1174
     24 C20        -3.1085    3.2644   -2.8522 C.3       1 <0>        -0.1137
     25 N3         -2.9297    0.8147   -2.7148 N.am      1 <0>        -0.7149
     26 C21        -2.3476    0.2435   -1.6430 C.2       1 <0>         0.7008
     27 O3         -2.7124   -0.8087   -1.1562 O.2       1 <0>        -0.5366
     28 H1         -1.0340    2.5849    8.2293 H         1 <0>         0.0612
     29 H2         -2.7755    2.7225    7.8884 H         1 <0>         0.0602
     30 H3         -2.0560    1.1277    8.2157 H         1 <0>         0.0611
     31 H4         -1.0734    3.1537    4.5800 H         1 <0>         0.0522
     32 H5         -2.2981    3.8701    5.6548 H         1 <0>         0.0653
     33 H6         -0.5923    3.8162    6.1604 H         1 <0>         0.0647
     34 H7         -3.0374    0.3128    6.1202 H         1 <0>         0.0638
     35 H8         -3.6756    1.9058    5.6477 H         1 <0>         0.0645
     36 H9         -2.5768    1.0280    4.5567 H         1 <0>         0.0549
     37 H10        -0.0293    0.8603    8.1772 H         1 <0>         0.1292
     38 H11         1.9712   -0.5420    7.8812 H         1 <0>         0.1208
     39 H12         2.7433   -1.1310    5.6195 H         1 <0>         0.1238
     40 H13         1.5111   -0.3254    3.6475 H         1 <0>         0.1831
     41 H14        -1.3927    1.8126    3.7957 H         1 <0>         0.4153
     42 H15        -1.1622    2.2635    1.1751 H         1 <0>         0.1037
     43 H16        -2.1434    0.7928    1.3806 H         1 <0>         0.1075
     44 H17        -0.4818   -0.4990    0.0696 H         1 <0>         0.1097
     45 H18         0.4995    0.9718   -0.1360 H         1 <0>         0.1071
     46 H19        -0.9354    2.9025   -4.5046 H         1 <0>         0.0910
     47 H20        -0.9100    1.1245   -4.4337 H         1 <0>         0.0754
     48 H21        -3.2286    1.0494   -5.2964 H         1 <0>         0.0649
     49 H22        -2.1675    1.9334   -6.4194 H         1 <0>         0.0756
     50 H23        -4.3007    3.1461   -6.0839 H         1 <0>         0.0698
     51 H24        -2.9311    4.0838   -5.4414 H         1 <0>         0.0691
     52 H25        -4.7833    2.2958   -3.8015 H         1 <0>         0.0649
     53 H26        -4.8377    4.0744   -3.8514 H         1 <0>         0.0753
     54 H27        -3.5778    3.2628   -1.8684 H         1 <0>         0.0743
     55 H28        -2.5262    4.1775   -2.9752 H         1 <0>         0.0908
     56 H29        -3.6862    0.4724   -3.2162 H         1 <0>         0.4401
@<TRIPOS>BOND
     1    1    2 1
     2    1   28 1
     3    1   29 1
     4    1   30 1
     5    2    3 1
     6    2    4 1
     7    2    5 1
     8    3   31 1
     9    3   32 1
    10    3   33 1
    11    4   34 1
    12    4   35 1
    13    4   36 1
    14    5   10 ar
    15    5    6 ar
    16    6    7 ar
    17    6   37 1
    18    7    8 ar
    19    7   38 1
    20    8    9 ar
    21    8   39 1
    22    9   10 ar
    23    9   40 1
    24   10   11 1
    25   11   12 am
    26   11   41 1
    27   12   13 2
    28   12   14 1
    29   14   15 1
    30   14   42 1
    31   14   43 1
    32   15   16 1
    33   15   44 1
    34   15   45 1
    35   16   26 am
    36   16   17 am
    37   17   18 2
    38   17   19 1
    39   19   24 1
    40   19   20 1
    41   19   25 1
    42   20   21 1
    43   20   46 1
    44   20   47 1
    45   21   22 1
    46   21   48 1
    47   21   49 1
    48   22   23 1
    49   22   50 1
    50   22   51 1
    51   23   24 1
    52   23   52 1
    53   23   53 1
    54   24   54 1
    55   24   55 1
    56   25   26 am
    57   25   56 1
    58   26   27 2
@<TRIPOS>MOLECULE
ZINC08541983
   42    43     0     0     0
SMALL
USER_CHARGES

@<TRIPOS>ATOM
      1 C1          1.2008    1.2359   -0.1727 C.3       1 <0>        -0.1165
      2 C2          0.5725   -0.1311   -0.0849 C.ar      1 <0>        -0.0662
      3 C3         -0.0333   -0.6856   -1.1977 C.ar      1 <0>        -0.1325
      4 C4         -0.6113   -1.9393   -1.1211 C.ar      1 <0>        -0.0980
      5 C5         -0.5854   -2.6419    0.0679 C.ar      1 <0>        -0.1317
      6 C6          0.0224   -2.0882    1.1867 C.ar      1 <0>         0.1611
      7 C7          0.6071   -0.8310    1.1050 C.ar      1 <0>        -0.1163
      8 C8          1.2732   -0.2287    2.3153 C.3       1 <0>        -0.1169
      9 N1          0.0504   -2.7974    2.3927 N.am      1 <0>        -0.6714
     10 C9         -0.0340   -4.1425    2.3855 C.2       1 <0>         0.6964
     11 O1         -0.0314   -4.7459    1.3305 O.2       1 <0>        -0.5035
     12 N2         -0.1214   -4.8184    3.5483 N.am      1 <0>        -0.6854
     13 C10        -0.2058   -6.1635    3.5411 C.2       1 <0>         0.5204
     14 O2         -0.2031   -6.7655    2.4887 O.2       1 <0>        -0.4354
     15 C11        -0.3034   -6.9193    4.8412 C.3       1 <0>         0.0532
     16 O3         -0.3813   -8.3207    4.5728 O.3       1 <0>        -0.3230
     17 C12        -0.4740   -9.1429    5.6361 C.2       1 <0>         0.5169
     18 O4         -0.4883   -8.6827    6.7604 O.2       1 <0>        -0.4820
     19 C13        -0.5581  -10.6024    5.4351 C.ar      1 <0>        -0.1544
     20 C14        -0.5361  -11.1357    4.1440 C.ar      1 <0>        -0.0216
     21 C15        -0.6146  -12.5011    3.9634 C.ar      1 <0>        -0.0638
     22 C16        -0.7157  -13.3443    5.0584 C.ar      1 <0>        -0.0397
     23 C17        -0.7387  -12.8256    6.3391 C.ar      1 <0>        -0.1531
     24 C18        -0.6545  -11.4592    6.5365 C.ar      1 <0>         0.1737
     25 F1         -0.6709  -10.9533    7.7891 F         1 <0>        -0.1068
     26 Cl1        -0.5874  -13.1649    2.3596 Cl        1 <0>        -0.0435
     27 H1          2.2444    1.1375   -0.4715 H         1 <0>         0.0721
     28 H2          0.6665    1.8347   -0.9103 H         1 <0>         0.0687
     29 H3          1.1459    1.7242    0.8003 H         1 <0>         0.0689
     30 H4         -0.0552   -0.1381   -2.1283 H         1 <0>         0.1239
     31 H5         -1.0839   -2.3695   -1.9918 H         1 <0>         0.1269
     32 H6         -1.0376   -3.6209    0.1272 H         1 <0>         0.1459
     33 H7          0.5418    0.3447    2.8849 H         1 <0>         0.0719
     34 H8          1.6781   -1.0243    2.9407 H         1 <0>         0.0610
     35 H9          2.0814    0.4291    1.9956 H         1 <0>         0.0758
     36 H10         0.1305   -2.3209    3.2338 H         1 <0>         0.4098
     37 H11        -0.1235   -4.3368    4.3902 H         1 <0>         0.4142
     38 H12         0.5786   -6.7140    5.4479 H         1 <0>         0.1118
     39 H13        -1.1966   -6.6023    5.3796 H         1 <0>         0.1119
     40 H14        -0.4581  -10.4804    3.2891 H         1 <0>         0.1631
     41 H15        -0.7772  -14.4123    4.9102 H         1 <0>         0.1546
     42 H16        -0.8183  -13.4888    7.1878 H         1 <0>         0.1596
@<TRIPOS>BOND
     1    1    2 1
     2    1   27 1
     3    1   28 1
     4    1   29 1
     5    2    7 ar
     6    2    3 ar
     7    3    4 ar
     8    3   30 1
     9    4    5 ar
    10    4   31 1
    11    5    6 ar
    12    5   32 1
    13    6    7 ar
    14    6    9 1
    15    7    8 1
    16    8   33 1
    17    8   34 1
    18    8   35 1
    19    9   10 am
    20    9   36 1
    21   10   11 2
    22   10   12 am
    23   12   13 am
    24   12   37 1
    25   13   14 2
    26   13   15 1
    27   15   16 1
    28   15   38 1
    29   15   39 1
    30   16   17 1
    31   17   18 2
    32   17   19 1
    33   19   24 ar
    34   19   20 ar
    35   20   21 ar
    36   20   40 1
    37   21   22 ar
    38   21   26 1
    39   22   23 ar
    40   22   41 1
    41   23   24 ar
    42   23   42 1
    43   24   25 1
@<TRIPOS>MOLECULE
ZINC56731460
   55    58     0     0     0
SMALL
USER_CHARGES

@<TRIPOS>ATOM
      1 C1         -3.6425   -9.3273    1.1981 C.3       1 <0>        -0.0718
      2 C2         -2.7297   -8.1666    0.8972 C.2       1 <0>        -0.0110
      3 C3         -2.3253   -7.7724   -0.3240 C.2       1 <0>        -0.0476
      4 O1         -1.5229   -6.7029   -0.1540 O.3       1 <0>        -0.1941
      5 C4         -1.4458   -6.4557    1.1651 C.2       1 <0>         0.2303
      6 N1         -2.1804   -7.3390    1.7990 N.2       1 <0>        -0.4592
      7 C5         -0.6676   -5.3681    1.7955 C.ar      1 <0>         0.0031
      8 C6          0.0682   -4.4839    1.0042 C.ar      1 <0>        -0.1073
      9 C7          0.7932   -3.4694    1.5951 C.ar      1 <0>        -0.0973
     10 C8          0.7946   -3.3246    2.9700 C.ar      1 <0>        -0.1289
     11 C9          0.0658   -4.1997    3.7661 C.ar      1 <0>         0.1653
     12 C10        -0.6708   -5.2185    3.1818 C.ar      1 <0>        -0.0740
     13 N2          0.0709   -4.0491    5.1577 N.am      1 <0>        -0.6856
     14 C11        -0.0123   -5.1339    5.9532 C.2       1 <0>         0.7021
     15 O2          0.0057   -6.2478    5.4661 O.2       1 <0>        -0.5625
     16 N3         -0.1155   -4.9839    7.2886 N.am      1 <0>        -0.7388
     17 C12        -0.2059   -6.1630    8.1533 C.3       1 <0>         0.1490
     18 C13        -0.3134   -5.7178    9.6132 C.3       1 <0>        -0.1147
     19 H1         -1.1409   -5.0210    9.7470 H         1 <0>         0.0936
     20 C14         1.0210   -5.0977   10.1052 C.3       1 <0>        -0.1274
     21 C15         0.9793   -5.3507   11.6270 C.3       1 <0>         0.1144
     22 N4          0.0551   -6.4705   11.8582 N.pl3     1 <0>        -0.6373
     23 C16        -0.4570   -6.9380   10.5567 C.3       1 <0>         0.1232
     24 C17        -0.2820   -7.0038   13.1043 C.ar      1 <0>         0.2345
     25 C18        -1.1671   -8.0711   13.1883 C.ar      1 <0>        -0.1961
     26 C19        -1.4979   -8.5964   14.4220 C.ar      1 <0>        -0.0715
     27 C20        -0.9495   -8.0606   15.5729 C.ar      1 <0>        -0.1796
     28 C21        -0.0681   -6.9981   15.4928 C.ar      1 <0>        -0.0720
     29 C22         0.2714   -6.4717   14.2620 C.ar      1 <0>        -0.1956
     30 C23        -2.6995   -8.4088   -1.6378 C.3       1 <0>        -0.0676
     31 H2         -4.6775   -8.9853    1.1969 H         1 <0>         0.0758
     32 H3         -3.5135  -10.0976    0.4377 H         1 <0>         0.0755
     33 H4         -3.3969   -9.7384    2.1772 H         1 <0>         0.0771
     34 H5          0.0702   -4.5942   -0.0701 H         1 <0>         0.1322
     35 H6          1.3619   -2.7864    0.9814 H         1 <0>         0.1367
     36 H7          1.3642   -2.5289    3.4268 H         1 <0>         0.1321
     37 H8         -1.2417   -5.8967    3.7987 H         1 <0>         0.1528
     38 H9          0.1342   -3.1640    5.5495 H         1 <0>         0.4090
     39 H10        -0.1298   -4.0952    7.6772 H         1 <0>         0.3983
     40 H11        -1.0883   -6.7438    7.8846 H         1 <0>         0.0750
     41 H12         0.6858   -6.7767    8.0254 H         1 <0>         0.0741
     42 H13         1.8725   -5.6061    9.6529 H         1 <0>         0.0809
     43 H14         1.0511   -4.0290    9.8926 H         1 <0>         0.0824
     44 H15         1.9747   -5.6112   11.9868 H         1 <0>         0.0626
     45 H16         0.6184   -4.4599   12.1412 H         1 <0>         0.0618
     46 H17        -1.5036   -7.2300   10.6427 H         1 <0>         0.0760
     47 H18         0.1417   -7.7724   10.1914 H         1 <0>         0.0672
     48 H19        -1.5963   -8.4896   12.2899 H         1 <0>         0.1188
     49 H20        -2.1859   -9.4262   14.4880 H         1 <0>         0.1211
     50 H21        -1.2104   -8.4728   16.5364 H         1 <0>         0.1183
     51 H22         0.3584   -6.5820   16.3936 H         1 <0>         0.1207
     52 H23         0.9633   -5.6448   14.1998 H         1 <0>         0.1175
     53 H24        -3.6048   -7.9401   -2.0237 H         1 <0>         0.0856
     54 H25        -1.8872   -8.2727   -2.3518 H         1 <0>         0.0793
     55 H26        -2.8771   -9.4737   -1.4881 H         1 <0>         0.0935
@<TRIPOS>BOND
     1    1    2 1
     2    1   31 1
     3    1   32 1
     4    1   33 1
     5    2    6 1
     6    2    3 2
     7    3    4 1
     8    3   30 1
     9    4    5 1
    10    5    6 2
    11    5    7 1
    12    7   12 ar
    13    7    8 ar
    14    8    9 ar
    15    8   34 1
    16    9   10 ar
    17    9   35 1
    18   10   11 ar
    19   10   36 1
    20   11   12 ar
    21   11   13 1
    22   12   37 1
    23   13   14 am
    24   13   38 1
    25   14   15 2
    26   14   16 am
    27   16   17 1
    28   16   39 1
    29   17   18 1
    30   17   40 1
    31   17   41 1
    32   18   19 1
    33   18   23 1
    34   18   20 1
    35   20   21 1
    36   20   42 1
    37   20   43 1
    38   21   22 1
    39   21   44 1
    40   21   45 1
    41   22   23 1
    42   22   24 1
    43   23   46 1
    44   23   47 1
    45   24   29 ar
    46   24   25 ar
    47   25   26 ar
    48   25   48 1
    49   26   27 ar
    50   26   49 1
    51   27   28 ar
    52   27   50 1
    53   28   29 ar
    54   28   51 1
    55   29   52 1
    56   30   53 1
    57   30   54 1
    58   30   55 1
@<TRIPOS>MOLECULE
ZINC65096835
   58    60     0     0     0
SMALL
USER_CHARGES

@<TRIPOS>ATOM
      1 C1         -0.0187    1.5258    0.0104 C.3       1 <0>        -0.1484
      2 C2          0.0021   -0.0041    0.0020 C.3       1 <0>        -0.1072
      3 C3          0.7182   -0.4975   -1.2568 C.3       1 <0>        -0.1351
      4 C4          0.7309   -0.5033    1.2229 C.2       1 <0>         0.5213
      5 O1          1.7255   -1.1866    1.0984 O.2       1 <0>        -0.5235
      6 N1          0.2778   -0.1906    2.4531 N.am      1 <0>        -0.6324
      7 C5          0.9570   -0.6557    3.5907 C.2       1 <0>         0.2253
      8 C6          2.0743   -1.4166    3.5923 C.2       1 <0>        -0.0562
      9 N2          2.3988   -1.6401    4.9097 N.pl3     1 <0>        -0.4134
     10 C7          1.4640   -1.0049    5.6638 C.2       1 <0>         0.2138
     11 N3          0.6127   -0.4172    4.8680 N.2       1 <0>        -0.4932
     12 C8          3.4853   -2.3814    5.3837 C.ar      1 <0>         0.1676
     13 C9          4.3662   -2.9731    4.4851 C.ar      1 <0>        -0.1376
     14 C10         5.4375   -3.7040    4.9484 C.ar      1 <0>        -0.0287
     15 C11         5.6390   -3.8502    6.3232 C.ar      1 <0>        -0.1451
     16 C12         4.7522   -3.2539    7.2232 C.ar      1 <0>        -0.0572
     17 C13         3.6858   -2.5204    6.7527 C.ar      1 <0>        -0.1431
     18 C14         6.7861   -4.6335    6.8237 C.2       1 <0>         0.5599
     19 O2          7.5567   -5.1521    6.0393 O.2       1 <0>        -0.5314
     20 N4          6.9790   -4.7735    8.1502 N.am      1 <0>        -0.7230
     21 C15         8.1173   -5.5507    8.6469 C.3       1 <0>         0.1356
     22 C16         9.3571   -4.6564    8.7086 C.3       1 <0>        -0.1297
     23 C17        10.4235   -5.3228    9.5804 C.3       1 <0>        -0.1370
     24 C18        11.0844   -6.4596    8.7980 C.3       1 <0>        -0.1208
     25 C19        10.1403   -7.6626    8.7515 C.3       1 <0>        -0.1317
     26 C20         9.5271   -7.8845   10.1354 C.3       1 <0>        -0.1300
     27 C21         8.0257   -7.5947   10.0807 C.3       1 <0>        -0.1191
     28 C22         7.8003   -6.0817   10.0462 C.3       1 <0>        -0.1358
     29 H1          1.0039    1.9031    0.0027 H         1 <0>         0.0635
     30 H2         -0.5459    1.8868   -0.8726 H         1 <0>         0.0738
     31 H3         -0.5289    1.8773    0.9072 H         1 <0>         0.0609
     32 H4         -1.0205   -0.3814    0.0098 H         1 <0>         0.1035
     33 H5          1.7408   -0.1202   -1.2645 H         1 <0>         0.0643
     34 H6          0.7330   -1.5874   -1.2628 H         1 <0>         0.0640
     35 H7          0.1910   -0.1364   -2.1398 H         1 <0>         0.0663
     36 H8         -0.5174    0.3558    2.5526 H         1 <0>         0.4168
     37 H9          2.6086   -1.7789    2.7264 H         1 <0>         0.2052
     38 H10         1.4329   -0.9861    6.7432 H         1 <0>         0.2174
     39 H11         4.2098   -2.8596    3.4225 H         1 <0>         0.1416
     40 H12         6.1208   -4.1639    4.2498 H         1 <0>         0.1480
     41 H13         4.9047   -3.3652    8.2865 H         1 <0>         0.1368
     42 H14         3.0020   -2.0560    7.4478 H         1 <0>         0.1399
     43 H15         6.3642   -4.3597    8.7761 H         1 <0>         0.3974
     44 H16         8.3064   -6.3878    7.9749 H         1 <0>         0.1033
     45 H17         9.7499   -4.5100    7.7024 H         1 <0>         0.0690
     46 H18         9.0880   -3.6913    9.1377 H         1 <0>         0.0628
     47 H19        11.1777   -4.5866    9.8583 H         1 <0>         0.0620
     48 H20         9.9581   -5.7240   10.4807 H         1 <0>         0.0867
     49 H21        11.2978   -6.1257    7.7825 H         1 <0>         0.0632
     50 H22        12.0142   -6.7462    9.2892 H         1 <0>         0.0607
     51 H23         9.3466   -7.4738    8.0286 H         1 <0>         0.0715
     52 H24        10.6980   -8.5508    8.4547 H         1 <0>         0.0604
     53 H25         9.6866   -8.9182   10.4420 H         1 <0>         0.0608
     54 H26        10.0003   -7.2153   10.8540 H         1 <0>         0.0744
     55 H27         7.6008   -8.0460    9.1841 H         1 <0>         0.0655
     56 H28         7.5422   -8.0141   10.9630 H         1 <0>         0.0654
     57 H29         8.4534   -5.6003   10.7740 H         1 <0>         0.0841
     58 H30         6.7607   -5.8636   10.2907 H         1 <0>         0.0675
@<TRIPOS>BOND
     1    1    2 1
     2    1   29 1
     3    1   30 1
     4    1   31 1
     5    2    3 1
     6    2    4 1
     7    2   32 1
     8    3   33 1
     9    3   34 1
    10    3   35 1
    11    4    5 2
    12    4    6 am
    13    6    7 1
    14    6   36 1
    15    7   11 1
    16    7    8 2
    17    8    9 1
    18    8   37 1
    19    9   10 1
    20    9   12 1
    21   10   11 2
    22   10   38 1
    23   12   17 ar
    24   12   13 ar
    25   13   14 ar
    26   13   39 1
    27   14   15 ar
    28   14   40 1
    29   15   16 ar
    30   15   18 1
    31   16   17 ar
    32   16   41 1
    33   17   42 1
    34   18   19 2
    35   18   20 am
    36   20   21 1
    37   20   43 1
    38   21   28 1
    39   21   22 1
    40   21   44 1
    41   22   23 1
    42   22   45 1
    43   22   46 1
    44   23   24 1
    45   23   47 1
    46   23   48 1
    47   24   25 1
    48   24   49 1
    49   24   50 1
    50   25   26 1
    51   25   51 1
    52   25   52 1
    53   26   27 1
    54   26   53 1
    55   26   54 1
    56   27   28 1
    57   27   55 1
    58   27   56 1
    59   28   57 1
    60   28   58 1
@<TRIPOS>MOLECULE
ZINC03840737
   72    74     0     0     0
SMALL
USER_CHARGES
N-[hydroxy-dimethyl-[1-(methyl-prop-2-ynyl-carbamoyl)ethyl]BLAHyl]-3,3-dimethyl-butanamide
@<TRIPOS>ATOM
      1 C1         -1.8735    3.5304   -0.1895 C.3       1 <0>        -0.1402
      2 C2         -1.4168    2.1190   -0.5638 C.3       1 <0>        -0.0109
      3 H1         -2.2880    1.4990   -0.7750 H         1 <0>         0.0972
      4 C3         -0.6329    1.5157    0.5930 C.2       1 <0>         0.0917
      5 C4          0.4918    0.7888    0.3566 C.2       1 <0>        -0.2345
      6 S1          1.0117    0.3242    1.9859 S.3       1 <0>         0.1638
      7 C5         -0.2716    1.1154    2.8516 C.2       1 <0>         0.2753
      8 N1         -0.9784    1.6519    1.8714 N.2       1 <0>        -0.5422
      9 N2         -0.4989    1.1674    4.2220 N.am      1 <0>        -0.6125
     10 C6          0.3447    0.5452    5.0691 C.2       1 <0>         0.5145
     11 O1          1.3023   -0.0600    4.6358 O.2       1 <0>        -0.4890
     12 C7          0.0983    0.6016    6.5547 C.3       1 <0>        -0.1248
     13 C8          1.1937   -0.1794    7.2834 C.3       1 <0>        -0.0516
     14 C9          2.5569    0.4399    6.9687 C.3       1 <0>        -0.1563
     15 C10         0.9435   -0.1222    8.7917 C.3       1 <0>        -0.1433
     16 C11         1.1761   -1.6369    6.8185 C.3       1 <0>        -0.1565
     17 C12         1.1084    0.4752   -0.9628 C.3       1 <0>        -0.0208
     18 C13         0.1091    0.8128   -2.0717 C.3       1 <0>        -0.0439
     19 C14        -0.5225    2.1841   -1.8067 C.3       1 <0>        -0.0599
     20 H2          0.2547    2.9388   -1.6865 H         1 <0>         0.0852
     21 C15        -1.4137    2.5277   -3.0122 C.3       1 <0>         0.1125
     22 H3         -1.8492    3.5174   -2.8748 H         1 <0>         0.0631
     23 C16        -2.5295    1.4846   -3.1094 C.3       1 <0>        -0.1041
     24 H4         -3.1174    1.4972   -2.1916 H         1 <0>         0.0936
     25 C17        -1.9287    0.0928   -3.3081 C.3       1 <0>        -0.1153
     26 C18        -0.9943   -0.2413   -2.1414 C.3       1 <0>        -0.1078
     27 C19        -3.4343    1.8213   -4.2965 C.3       1 <0>        -0.1084
     28 H5         -2.8486    1.8053   -5.2156 H         1 <0>         0.0955
     29 C20        -4.0367    3.2139   -4.0997 C.3       1 <0>        -0.1553
     30 C21        -4.5417    0.8034   -4.3886 C.2       1 <0>         0.5230
     31 O2         -4.7934    0.0934   -3.4381 O.2       1 <0>        -0.5236
     32 N3         -5.2523    0.6819   -5.5274 N.am      1 <0>        -0.6164
     33 C22        -5.0131    1.6023   -6.6418 C.3       1 <0>         0.0662
     34 C23        -6.2639   -0.3705   -5.6508 C.3       1 <0>         0.2240
     35 C24        -7.5633    0.1408   -5.1848 C.1       1 <0>        -0.2104
     36 C25        -8.5995    0.5487   -4.8132 C.1       1 <0>        -0.1816
     37 O3         -0.6341    2.5090   -4.2097 O.3       1 <0>        -0.5442
     38 C26         0.8427    0.8647   -3.4133 C.3       1 <0>        -0.1371
     39 H6         -2.4343    3.9627   -1.0182 H         1 <0>         0.0565
     40 H7         -2.5096    3.4840    0.6945 H         1 <0>         0.0660
     41 H8         -1.0022    4.1502    0.0220 H         1 <0>         0.0537
     42 H9         -1.2647    1.6515    4.5685 H         1 <0>         0.4240
     43 H10         0.1108    1.6400    6.8860 H         1 <0>         0.1035
     44 H11        -0.8729    0.1604    6.7789 H         1 <0>         0.1035
     45 H12         2.5694    1.4783    7.3000 H         1 <0>         0.0485
     46 H13         3.3373   -0.1165    7.4879 H         1 <0>         0.0558
     47 H14         2.7352    0.3991    5.8942 H         1 <0>         0.0807
     48 H15        -0.0277   -0.5634    9.0159 H         1 <0>         0.0565
     49 H16         1.7239   -0.6786    9.3109 H         1 <0>         0.0615
     50 H17         0.9560    0.9162    9.1230 H         1 <0>         0.0565
     51 H18         1.3544   -1.6777    5.7439 H         1 <0>         0.0807
     52 H19         1.9565   -2.1933    7.3376 H         1 <0>         0.0558
     53 H20         0.2050   -2.0782    7.0427 H         1 <0>         0.0485
     54 H21         1.3579   -0.5850   -1.0064 H         1 <0>         0.0805
     55 H22         2.0132    1.0689   -1.0934 H         1 <0>         0.0824
     56 H23        -1.3654    0.0713   -4.2410 H         1 <0>         0.0702
     57 H24        -2.7309   -0.6439   -3.3522 H         1 <0>         0.0723
     58 H25        -0.5505   -1.2242   -2.2993 H         1 <0>         0.0640
     59 H26        -1.5583   -0.2413   -1.2087 H         1 <0>         0.0635
     60 H27        -4.5389    3.2593   -3.1334 H         1 <0>         0.0666
     61 H28        -3.2435    3.9608   -4.1324 H         1 <0>         0.0729
     62 H29        -4.7568    3.4137   -4.8932 H         1 <0>         0.0669
     63 H30        -4.2567    1.1817   -7.3044 H         1 <0>         0.0627
     64 H31        -5.9399    1.7504   -7.1960 H         1 <0>         0.0735
     65 H32        -4.6647    2.5596   -6.2540 H         1 <0>         0.0818
     66 H33        -6.3463   -0.6748   -6.6942 H         1 <0>         0.1021
     67 H34        -5.9722   -1.2278   -5.0442 H         1 <0>         0.1063
     68 H35        -9.5264    0.9134   -4.4809 H         1 <0>         0.2177
     69 H36        -1.1387    2.7065   -5.0106 H         1 <0>         0.3626
     70 H37         1.5480    0.0359   -3.4741 H         1 <0>         0.0385
     71 H38         0.1202    0.7872   -4.2258 H         1 <0>         0.0903
     72 H39         1.3826    1.8080   -3.4960 H         1 <0>         0.0583
@<TRIPOS>BOND
     1    1    2 1
     2    1   39 1
     3    1   40 1
     4    1   41 1
     5    2    3 1
     6    2   19 1
     7    2    4 1
     8    4    8 1
     9    4    5 2
    10    5    6 1
    11    5   17 1
    12    6    7 1
    13    7    8 2
    14    7    9 1
    15    9   10 am
    16    9   42 1
    17   10   11 2
    18   10   12 1
    19   12   13 1
    20   12   43 1
    21   12   44 1
    22   13   14 1
    23   13   15 1
    24   13   16 1
    25   14   45 1
    26   14   46 1
    27   14   47 1
    28   15   48 1
    29   15   49 1
    30   15   50 1
    31   16   51 1
    32   16   52 1
    33   16   53 1
    34   17   18 1
    35   17   54 1
    36   17   55 1
    37   18   26 1
    38   18   19 1
    39   18   38 1
    40   19   20 1
    41   19   21 1
    42   21   22 1
    43   21   23 1
    44   21   37 1
    45   23   24 1
    46   23   25 1
    47   23   27 1
    48   25   26 1
    49   25   56 1
    50   25   57 1
    51   26   58 1
    52   26   59 1
    53   27   28 1
    54   27   29 1
    55   27   30 1
    56   29   60 1
    57   29   61 1
    58   29   62 1
    59   30   31 2
    60   30   32 am
    61   32   33 1
    62   32   34 1
    63   33   63 1
    64   33   64 1
    65   33   65 1
    66   34   35 1
    67   34   66 1
    68   34   67 1
    69   35   36 3
    70   36   68 1
    71   37   69 1
    72   38   70 1
    73   38   71 1
    74   38   72 1
@<TRIPOS>MOLECULE
ZINC11589390
   51    54     0     0     0
SMALL
USER_CHARGES
2-(4-benzyl-2,5-dioxo-4-phenyl-imidazolidin-1-yl)-N-(2-bromophenyl)-acetamide
@<TRIPOS>ATOM
      1 C1         -0.3177    2.6470    4.7421 C.ar      1 <0>        -0.1101
      2 C2         -0.2572    1.3799    4.1928 C.ar      1 <0>        -0.0779
      3 C3          0.5037    1.1527    3.0613 C.ar      1 <0>        -0.0948
      4 C4          1.2044    2.1924    2.4793 C.ar      1 <0>        -0.1032
      5 C5          1.1485    3.4583    3.0318 C.ar      1 <0>        -0.1063
      6 C6          0.3835    3.6867    4.1603 C.ar      1 <0>        -0.1184
      7 C7          2.0342    1.9446    1.2460 C.3       1 <0>        -0.0720
      8 C8          1.1744    2.1656   -0.0001 C.3       1 <0>         0.1792
      9 C9         -0.0186    1.2305    0.0024 C.2       1 <0>         0.5476
     10 O1          0.0010    0.0184   -0.0125 O.2       1 <0>        -0.4535
     11 N1         -1.1057    2.0269    0.0187 N.am      1 <0>        -0.5584
     12 C10        -0.7687    3.3216    0.0355 C.2       1 <0>         0.7148
     13 O2         -1.5763    4.2297    0.0550 O.2       1 <0>        -0.5364
     14 N2          0.5638    3.5060    0.0226 N.am      1 <0>        -0.7103
     15 C11        -2.4858    1.5356    0.0208 C.3       1 <0>         0.1012
     16 C12        -2.9507    1.3496    1.4422 C.2       1 <0>         0.4983
     17 O3         -2.2027    1.6025    2.3628 O.2       1 <0>        -0.4800
     18 N3         -4.1975    0.9021    1.6903 N.am      1 <0>        -0.6703
     19 C13        -4.5980    0.6395    3.0054 C.ar      1 <0>         0.1779
     20 C14        -4.1247    1.4263    4.0472 C.ar      1 <0>        -0.1128
     21 C15        -4.5217    1.1646    5.3439 C.ar      1 <0>        -0.0853
     22 C16        -5.3897    0.1203    5.6059 C.ar      1 <0>        -0.1280
     23 C17        -5.8635   -0.6650    4.5714 C.ar      1 <0>        -0.0729
     24 C18        -5.4744   -0.4053    3.2708 C.ar      1 <0>        -0.1209
     25 Br1        -6.1289   -1.4748    1.8553 Br        1 <0>        -0.0446
     26 C19         1.9932    1.9771   -1.2512 C.ar      1 <0>        -0.1020
     27 C20         3.0368    1.0707   -1.2642 C.ar      1 <0>        -0.0918
     28 C21         3.7850    0.8946   -2.4132 C.ar      1 <0>        -0.1161
     29 C22         3.4957    1.6319   -3.5461 C.ar      1 <0>        -0.1059
     30 C23         2.4552    2.5418   -3.5316 C.ar      1 <0>        -0.1174
     31 C24         1.7042    2.7147   -2.3840 C.ar      1 <0>        -0.0993
     32 H1         -0.9124    2.8246    5.6259 H         1 <0>         0.1143
     33 H2         -0.8047    0.5675    4.6475 H         1 <0>         0.1126
     34 H3          0.5509    0.1627    2.6321 H         1 <0>         0.1122
     35 H4          1.6995    4.2697    2.5797 H         1 <0>         0.1143
     36 H5          0.3365    4.6765    4.5897 H         1 <0>         0.1164
     37 H6          2.4026    0.9188    1.2560 H         1 <0>         0.0983
     38 H7          2.8786    2.6337    1.2317 H         1 <0>         0.0976
     39 H8          1.0313    4.3559    0.0276 H         1 <0>         0.4413
     40 H9         -3.1296    2.2585   -0.4804 H         1 <0>         0.1315
     41 H10        -2.5327    0.5817   -0.5046 H         1 <0>         0.1295
     42 H11        -4.8174    0.7621    0.9574 H         1 <0>         0.4136
     43 H12        -3.4466    2.2418    3.8437 H         1 <0>         0.1493
     44 H13        -4.1540    1.7766    6.1543 H         1 <0>         0.1322
     45 H14        -5.6984   -0.0819    6.6209 H         1 <0>         0.1332
     46 H15        -6.5415   -1.4795    4.7792 H         1 <0>         0.1365
     47 H16         3.2654    0.4976   -0.3778 H         1 <0>         0.1305
     48 H17         4.5978    0.1835   -2.4246 H         1 <0>         0.1294
     49 H18         4.0825    1.4968   -4.4427 H         1 <0>         0.1268
     50 H19         2.2292    3.1178   -4.4168 H         1 <0>         0.1272
     51 H20         0.8914    3.4259   -2.3726 H         1 <0>         0.1231
@<TRIPOS>BOND
     1    1    6 ar
     2    1    2 ar
     3    1   32 1
     4    2    3 ar
     5    2   33 1
     6    3    4 ar
     7    3   34 1
     8    4    5 ar
     9    4    7 1
    10    5    6 ar
    11    5   35 1
    12    6   36 1
    13    7    8 1
    14    7   37 1
    15    7   38 1
    16    8   14 1
    17    8    9 1
    18    8   26 1
    19    9   10 2
    20    9   11 am
    21   11   12 am
    22   11   15 1
    23   12   13 2
    24   12   14 am
    25   14   39 1
    26   15   16 1
    27   15   40 1
    28   15   41 1
    29   16   17 2
    30   16   18 am
    31   18   19 1
    32   18   42 1
    33   19   24 ar
    34   19   20 ar
    35   20   21 ar
    36   20   43 1
    37   21   22 ar
    38   21   44 1
    39   22   23 ar
    40   22   45 1
    41   23   24 ar
    42   23   46 1
    43   24   25 1
    44   26   31 ar
    45   26   27 ar
    46   27   28 ar
    47   27   47 1
    48   28   29 ar
    49   28   48 1
    50   29   30 ar
    51   29   49 1
    52   30   31 ar
    53   30   50 1
    54   31   51 1
@<TRIPOS>MOLECULE
ZINC16455951
   51    54     0     0     0
SMALL
USER_CHARGES
2-[(4R)-4-(4-fluorophenyl)-4-methyl-2,5-dioxo-imidazolidin-1-yl]-N-[(S)-(4-fluorophenyl)-(2-thienyl)methyl]acetamide
@<TRIPOS>ATOM
      1 C1          2.1820    1.0421   -7.0302 C.3       1 <0>        -0.1454
      2 C2          3.4007    1.8951   -6.6724 C.3       1 <0>         0.1724
      3 C3          3.1575    2.6598   -5.3863 C.2       1 <0>         0.5422
      4 O1          2.2955    3.4864   -5.1778 O.2       1 <0>        -0.4524
      5 N1          4.0982    2.2290   -4.5228 N.am      1 <0>        -0.5595
      6 C4          4.8967    1.3116   -5.0802 C.2       1 <0>         0.7122
      7 O2          5.8219    0.7788   -4.4995 O.2       1 <0>        -0.5331
      8 N2          4.5589    1.0422   -6.3542 N.am      1 <0>        -0.7150
      9 C5          4.2335    2.7103   -3.1457 C.3       1 <0>         0.0989
     10 C6          3.4024    1.8502   -2.2290 C.2       1 <0>         0.5086
     11 O3          2.7602    0.9261   -2.6814 O.2       1 <0>        -0.5143
     12 N3          3.3727    2.1078   -0.9064 N.am      1 <0>        -0.7215
     13 C7          2.5647    1.2717   -0.0152 C.3       1 <0>         0.2816
     14 H1          2.5780    0.2418   -0.3721 H         1 <0>         0.1205
     15 C8          3.1339    1.3276    1.3790 C.ar      1 <0>        -0.1067
     16 C9          3.6096    2.5236    1.8834 C.ar      1 <0>        -0.0785
     17 C10         4.1274    2.5770    3.1636 C.ar      1 <0>        -0.1469
     18 C11         4.1792    1.4299    3.9373 C.ar      1 <0>         0.1076
     19 C12         3.7073    0.2315    3.4291 C.ar      1 <0>        -0.1479
     20 C13         3.1851    0.1816    2.1506 C.ar      1 <0>        -0.0683
     21 F1          4.6895    1.4800    5.1872 F         1 <0>        -0.1357
     22 C14         1.1459    1.7795    0.0007 C.2       1 <0>        -0.1578
     23 C15        -0.0126    1.0758    0.0080 C.2       1 <0>        -0.1377
     24 C16        -1.2130    1.7610    0.0173 C.2       1 <0>        -0.1563
     25 C17        -1.1962    3.1163    0.0303 C.2       1 <0>        -0.1687
     26 S1          0.5548    3.4640    0.0154 S.3       1 <0>         0.0460
     27 C18         3.7322    2.8415   -7.7973 C.ar      1 <0>        -0.1107
     28 C19         3.2059    4.1199   -7.8022 C.ar      1 <0>        -0.0792
     29 C20         3.5138    4.9905   -8.8304 C.ar      1 <0>        -0.1473
     30 C21         4.3402    4.5781   -9.8619 C.ar      1 <0>         0.1110
     31 C22         4.8623    3.2957   -9.8588 C.ar      1 <0>        -0.1508
     32 C23         4.5579    2.4288   -8.8264 C.ar      1 <0>        -0.0660
     33 F2          4.6367    5.4262  -10.8708 F         1 <0>        -0.1346
     34 H2          1.3159    1.6881   -7.1739 H         1 <0>         0.0875
     35 H3          2.3812    0.4915   -7.9496 H         1 <0>         0.0841
     36 H4          1.9807    0.3390   -6.2220 H         1 <0>         0.0780
     37 H5          4.9954    0.4123   -6.9488 H         1 <0>         0.4417
     38 H6          3.8894    3.7428   -3.0863 H         1 <0>         0.1302
     39 H7          5.2795    2.6580   -2.8437 H         1 <0>         0.1331
     40 H8          3.8863    2.8469   -0.5446 H         1 <0>         0.4048
     41 H9          3.5728    3.4173    1.2782 H         1 <0>         0.1309
     42 H10         4.4952    3.5123    3.5590 H         1 <0>         0.1407
     43 H11         3.7469   -0.6638    4.0318 H         1 <0>         0.1410
     44 H12         2.8166   -0.7530    1.7541 H         1 <0>         0.1377
     45 H13         0.0021   -0.0041    0.0020 H         1 <0>         0.1332
     46 H14        -2.1503    1.2245    0.0184 H         1 <0>         0.1353
     47 H15        -2.0266    3.8068    0.0414 H         1 <0>         0.1865
     48 H16         2.5571    4.4396   -7.0002 H         1 <0>         0.1504
     49 H17         3.1058    5.9904   -8.8319 H         1 <0>         0.1423
     50 H18         5.5067    2.9728  -10.6630 H         1 <0>         0.1421
     51 H19         4.9650    1.4285   -8.8238 H         1 <0>         0.1340
@<TRIPOS>BOND
     1    1    2 1
     2    1   34 1
     3    1   35 1
     4    1   36 1
     5    2    8 1
     6    2    3 1
     7    2   27 1
     8    3    4 2
     9    3    5 am
    10    5    6 am
    11    5    9 1
    12    6    7 2
    13    6    8 am
    14    8   37 1
    15    9   10 1
    16    9   38 1
    17    9   39 1
    18   10   11 2
    19   10   12 am
    20   12   13 1
    21   12   40 1
    22   13   14 1
    23   13   15 1
    24   13   22 1
    25   15   20 ar
    26   15   16 ar
    27   16   17 ar
    28   16   41 1
    29   17   18 ar
    30   17   42 1
    31   18   19 ar
    32   18   21 1
    33   19   20 ar
    34   19   43 1
    35   20   44 1
    36   22   26 1
    37   22   23 2
    38   23   24 1
    39   23   45 1
    40   24   25 2
    41   24   46 1
    42   25   26 1
    43   25   47 1
    44   27   32 ar
    45   27   28 ar
    46   28   29 ar
    47   28   48 1
    48   29   30 ar
    49   29   49 1
    50   30   31 ar
    51   30   33 1
    52   31   32 ar
    53   31   50 1
    54   32   51 1
@<TRIPOS>MOLECULE
ZINC34899816
   69    72     0     0     0
SMALL
USER_CHARGES

@<TRIPOS>ATOM
      1 C1         -2.1939   -1.3031    1.8777 C.ar      1 <0>        -0.0281
      2 C2         -1.0326   -0.8307    2.4507 C.ar      1 <0>        -0.1605
      3 C3          0.0656   -1.6660    2.5874 C.ar      1 <0>         0.1285
      4 C4          0.0025   -2.9798    2.1486 C.ar      1 <0>        -0.1608
      5 C5         -1.1538   -3.4624    1.5742 C.ar      1 <0>        -0.0563
      6 C6         -2.2630   -2.6256    1.4345 C.ar      1 <0>        -0.1505
      7 C7         -3.5050   -3.1375    0.8200 C.2       1 <0>         0.5634
      8 O1         -4.4693   -2.4071    0.6995 O.2       1 <0>        -0.5291
      9 N1         -3.5691   -4.4142    0.3931 N.am      1 <0>        -0.7225
     10 C8         -4.8009   -4.9219   -0.2163 C.3       1 <0>         0.1409
     11 H1         -5.2753   -4.1275   -0.7925 H         1 <0>         0.0973
     12 C9         -5.7555   -5.3953    0.8817 C.3       1 <0>        -0.1269
     13 C10        -7.0419   -5.9255    0.2453 C.3       1 <0>        -0.1194
     14 C11        -6.7077   -7.0972   -0.6802 C.3       1 <0>        -0.1197
     15 C12        -5.7531   -6.6237   -1.7781 C.3       1 <0>        -0.1258
     16 C13        -4.4667   -6.0935   -1.1417 C.3       1 <0>         0.1401
     17 H2         -3.9923   -6.8879   -0.5655 H         1 <0>         0.0951
     18 N2         -3.5527   -5.6402   -2.1930 N.am      1 <0>        -0.7273
     19 C14        -2.7351   -6.5221   -2.8016 C.2       1 <0>         0.5206
     20 O2         -2.7561   -7.6909   -2.4788 O.2       1 <0>        -0.5323
     21 C15        -1.7949   -6.0557   -3.8830 C.3       1 <0>        -0.1068
     22 C16        -2.6013   -5.4440   -5.0309 C.3       1 <0>        -0.1247
     23 C17        -1.6408   -4.9399   -6.1125 C.3       1 <0>         0.1118
     24 N3         -0.7603   -6.0450   -6.5155 N.am      1 <0>        -0.6148
     25 C18        -0.0069   -6.7623   -5.4779 C.3       1 <0>         0.1039
     26 C19        -0.9858   -7.2460   -4.4033 C.3       1 <0>        -0.1151
     27 C20        -0.6463   -6.3943   -7.8122 C.2       1 <0>         0.5212
     28 O3         -1.3328   -5.8484   -8.6499 O.2       1 <0>        -0.5366
     29 C21         0.3341   -7.4632   -8.2212 C.3       1 <0>        -0.1065
     30 C22         1.7308   -6.8518   -8.3498 C.3       1 <0>        -0.1075
     31 C23         2.7262   -7.9370   -8.7650 C.3       1 <0>        -0.1174
     32 C24         2.3029   -8.5295  -10.1107 C.3       1 <0>        -0.1231
     33 C25         0.9063   -9.1408   -9.9820 C.3       1 <0>        -0.1198
     34 C26        -0.0892   -8.0556   -9.5668 C.3       1 <0>        -0.1020
     35 F1          1.2013   -1.1980    3.1497 F         1 <0>        -0.1316
     36 H3         -3.0502   -0.6529    1.7758 H         1 <0>         0.1480
     37 H4         -0.9780    0.1920    2.7935 H         1 <0>         0.1453
     38 H5          0.8611   -3.6260    2.2568 H         1 <0>         0.1437
     39 H6         -1.2017   -4.4858    1.2324 H         1 <0>         0.1345
     40 H7         -2.7997   -4.9970    0.4893 H         1 <0>         0.4003
     41 H8         -5.2810   -6.1897    1.4579 H         1 <0>         0.0684
     42 H9         -5.9935   -4.5606    1.5410 H         1 <0>         0.0755
     43 H10        -7.7219   -6.2628    1.0275 H         1 <0>         0.0705
     44 H11        -7.5163   -5.1312   -0.3310 H         1 <0>         0.0672
     45 H12        -6.2333   -7.8915   -0.1039 H         1 <0>         0.0665
     46 H13        -7.6242   -7.4749   -1.1336 H         1 <0>         0.0701
     47 H14        -5.5151   -7.4584   -2.4374 H         1 <0>         0.0743
     48 H15        -6.2276   -5.8294   -2.3544 H         1 <0>         0.0684
     49 H16        -3.5359   -4.7053   -2.4511 H         1 <0>         0.4014
     50 H17        -1.1167   -5.3057   -3.4759 H         1 <0>         0.1003
     51 H18        -3.2620   -6.2003   -5.4547 H         1 <0>         0.0749
     52 H19        -3.1952   -4.6110   -4.6547 H         1 <0>         0.0796
     53 H20        -2.2107   -4.5937   -6.9748 H         1 <0>         0.0977
     54 H21        -1.0409   -4.1209   -5.7157 H         1 <0>         0.0705
     55 H22         0.5012   -7.6186   -5.9214 H         1 <0>         0.0937
     56 H23         0.7261   -6.0919   -5.0293 H         1 <0>         0.0728
     57 H24        -0.4298   -7.6955   -3.5806 H         1 <0>         0.0859
     58 H25        -1.6617   -7.9853   -4.8331 H         1 <0>         0.0766
     59 H26         0.3499   -8.2497   -7.4667 H         1 <0>         0.0935
     60 H27         1.7151   -6.0653   -9.1043 H         1 <0>         0.0697
     61 H28         2.0324   -6.4298   -7.3912 H         1 <0>         0.0661
     62 H29         3.7212   -7.5015   -8.8567 H         1 <0>         0.0669
     63 H30         2.7420   -8.7235   -8.0106 H         1 <0>         0.0643
     64 H31         2.2872   -7.7429  -10.8651 H         1 <0>         0.0636
     65 H32         3.0121   -9.3026  -10.4065 H         1 <0>         0.0639
     66 H33         0.6047   -9.5629  -10.9407 H         1 <0>         0.0666
     67 H34         0.9220   -9.9273   -9.2275 H         1 <0>         0.0624
     68 H35        -1.0842   -8.4911   -9.4751 H         1 <0>         0.0646
     69 H36        -0.1049   -7.2691  -10.3212 H         1 <0>         0.0744
@<TRIPOS>BOND
     1    1    6 ar
     2    1    2 ar
     3    1   36 1
     4    2    3 ar
     5    2   37 1
     6    3    4 ar
     7    3   35 1
     8    4    5 ar
     9    4   38 1
    10    5    6 ar
    11    5   39 1
    12    6    7 1
    13    7    8 2
    14    7    9 am
    15    9   10 1
    16    9   40 1
    17   10   11 1
    18   10   16 1
    19   10   12 1
    20   12   13 1
    21   12   41 1
    22   12   42 1
    23   13   14 1
    24   13   43 1
    25   13   44 1
    26   14   15 1
    27   14   45 1
    28   14   46 1
    29   15   16 1
    30   15   47 1
    31   15   48 1
    32   16   17 1
    33   16   18 1
    34   18   19 am
    35   18   49 1
    36   19   20 2
    37   19   21 1
    38   21   26 1
    39   21   22 1
    40   21   50 1
    41   22   23 1
    42   22   51 1
    43   22   52 1
    44   23   24 1
    45   23   53 1
    46   23   54 1
    47   24   25 1
    48   24   27 am
    49   25   26 1
    50   25   55 1
    51   25   56 1
    52   26   57 1
    53   26   58 1
    54   27   28 2
    55   27   29 1
    56   29   34 1
    57   29   30 1
    58   29   59 1
    59   30   31 1
    60   30   60 1
    61   30   61 1
    62   31   32 1
    63   31   62 1
    64   31   63 1
    65   32   33 1
    66   32   64 1
    67   32   65 1
    68   33   34 1
    69   33   66 1
    70   33   67 1
    71   34   68 1
    72   34   69 1
@<TRIPOS>MOLECULE
ZINC39883176
   57    61     0     0     0
SMALL
USER_CHARGES

@<TRIPOS>ATOM
      1 C1         -0.0167    1.3840    0.0097 C.ar      1 <0>        -0.0854
      2 C2          1.1591    2.1034    0.0023 C.ar      1 <0>        -0.0894
      3 C3          2.3788    1.4394   -0.0129 C.ar      1 <0>         0.0574
      4 C4          2.3978    0.0345   -0.0207 C.ar      1 <0>        -0.1023
      5 C5          1.2023   -0.6822   -0.0131 C.ar      1 <0>        -0.0613
      6 C6          0.0021   -0.0041    0.0020 C.ar      1 <0>        -0.0473
      7 Cl1        -1.4913   -0.8892    0.0121 Cl        1 <0>        -0.0600
      8 C7          3.8173   -0.3387   -0.0363 C.2       1 <0>        -0.1695
      9 C8          4.5057    0.8109   -0.0367 C.2       1 <0>         0.0400
     10 O1          3.6611    1.8568   -0.0230 O.3       1 <0>        -0.1849
     11 C9          4.3862   -1.7341   -0.0493 C.3       1 <0>        -0.0603
     12 C10         4.4476   -2.2384   -1.4681 C.2       1 <0>         0.5056
     13 O2          4.0669   -1.5340   -2.3790 O.2       1 <0>        -0.4845
     14 N1          4.9255   -3.4722   -1.7246 N.am      1 <0>        -0.6218
     15 C11         4.9820   -3.9362   -3.0301 C.2       1 <0>         0.0376
     16 C12         5.4334   -5.1677   -3.4779 C.2       1 <0>        -0.2320
     17 C13         5.3886   -5.4110   -4.9092 C.2       1 <0>        -0.0599
     18 C14         4.9011   -4.3784   -5.6302 C.2       1 <0>        -0.2253
     19 S1          4.5124   -3.1378   -4.4308 S.3       1 <0>         0.2844
     20 C15         4.7313   -4.3200   -7.1168 C.3       1 <0>        -0.0345
     21 C16         5.5436   -5.4647   -7.7402 C.3       1 <0>        -0.1140
     22 C17         5.2353   -6.7603   -6.9842 C.3       1 <0>        -0.1190
     23 C18         5.8396   -6.7004   -5.5796 C.3       1 <0>        -0.0594
     24 C19         5.9355   -6.1822   -2.5460 C.2       1 <0>         0.5823
     25 O3          5.1706   -6.9958   -2.0620 O.2       1 <0>        -0.5330
     26 N2          7.2442   -6.2137   -2.2252 N.am      1 <0>        -0.7180
     27 C20         7.7459   -7.2273   -1.2941 C.3       1 <0>         0.1202
     28 C21         9.2527   -7.0430   -1.1029 C.3       1 <0>         0.0679
     29 H1          9.4647   -6.0483   -0.7107 H         1 <0>         0.0780
     30 C22         9.8103   -8.1280   -0.1475 C.3       1 <0>        -0.1486
     31 C23        11.2969   -8.1783   -0.5942 C.3       1 <0>        -0.1558
     32 C24        11.1930   -7.9042   -2.1099 C.3       1 <0>         0.0499
     33 O4          9.9416   -7.2457   -2.3469 O.3       1 <0>        -0.3768
     34 H2         -0.9623    1.9056    0.0260 H         1 <0>         0.1475
     35 H3          1.1319    3.1831    0.0080 H         1 <0>         0.1442
     36 H4          1.2162   -1.7621   -0.0194 H         1 <0>         0.1347
     37 H5          5.5831    0.8863   -0.0463 H         1 <0>         0.2111
     38 H6          5.3899   -1.7213    0.3755 H         1 <0>         0.1160
     39 H7          3.7494   -2.3916    0.5428 H         1 <0>         0.1144
     40 H8          5.2299   -4.0356   -0.9961 H         1 <0>         0.4183
     41 H9          3.6778   -4.4362   -7.3712 H         1 <0>         0.0816
     42 H10         5.0969   -3.3638   -7.4911 H         1 <0>         0.0804
     43 H11         5.2680   -5.5793   -8.7885 H         1 <0>         0.0734
     44 H12         6.6077   -5.2414   -7.6630 H         1 <0>         0.0679
     45 H13         4.1553   -6.8869   -6.9083 H         1 <0>         0.0666
     46 H14         5.6604   -7.6054   -7.5256 H         1 <0>         0.0697
     47 H15         6.9273   -6.7154   -5.6491 H         1 <0>         0.0777
     48 H16         5.4963   -7.5551   -4.9968 H         1 <0>         0.0742
     49 H17         7.8538   -5.5653   -2.6109 H         1 <0>         0.4059
     50 H18         7.2419   -7.1196   -0.3336 H         1 <0>         0.0812
     51 H19         7.5497   -8.2206   -1.6979 H         1 <0>         0.0762
     52 H20         9.7232   -7.8170    0.8936 H         1 <0>         0.0880
     53 H21         9.3181   -9.0865   -0.3117 H         1 <0>         0.0844
     54 H22        11.8775   -7.4004   -0.0982 H         1 <0>         0.0785
     55 H23        11.7252   -9.1628   -0.4064 H         1 <0>         0.0856
     56 H24        12.0137   -7.2604   -2.4264 H         1 <0>         0.0705
     57 H25        11.2267   -8.8452   -2.6590 H         1 <0>         0.0716
@<TRIPOS>BOND
     1    1    6 ar
     2    1    2 ar
     3    1   34 1
     4    2    3 ar
     5    2   35 1
     6    3   10 1
     7    3    4 ar
     8    4    5 ar
     9    4    8 1
    10    5    6 ar
    11    5   36 1
    12    6    7 1
    13    8    9 2
    14    8   11 1
    15    9   10 1
    16    9   37 1
    17   11   12 1
    18   11   38 1
    19   11   39 1
    20   12   13 2
    21   12   14 am
    22   14   15 1
    23   14   40 1
    24   15   19 1
    25   15   16 2
    26   16   17 1
    27   16   24 1
    28   17   23 1
    29   17   18 2
    30   18   19 1
    31   18   20 1
    32   20   21 1
    33   20   41 1
    34   20   42 1
    35   21   22 1
    36   21   43 1
    37   21   44 1
    38   22   23 1
    39   22   45 1
    40   22   46 1
    41   23   47 1
    42   23   48 1
    43   24   25 2
    44   24   26 am
    45   26   27 1
    46   26   49 1
    47   27   28 1
    48   27   50 1
    49   27   51 1
    50   28   29 1
    51   28   33 1
    52   28   30 1
    53   30   31 1
    54   30   52 1
    55   30   53 1
    56   31   32 1
    57   31   54 1
    58   31   55 1
    59   32   33 1
    60   32   56 1
    61   32   57 1
@<TRIPOS>MOLECULE
ZINC01133268
   50    54     0     0     0
SMALL
USER_CHARGES

@<TRIPOS>ATOM
      1 C1         -1.0875    0.7361   -2.0274 C.ar      1 <0>        -0.1020
      2 C2          0.0209    1.5476   -1.8306 C.ar      1 <0>        -0.1283
      3 C3          1.2495    1.0023   -1.5873 C.ar      1 <0>        -0.0641
      4 C4          1.3968   -0.3864   -1.5348 C.ar      1 <0>         0.0483
      5 C5          0.2749   -1.2085   -1.7335 C.ar      1 <0>         0.0449
      6 C6         -0.9658   -0.6363   -1.9800 C.ar      1 <0>        -0.1131
      7 N1          0.7300   -2.5073   -1.6241 N.pl3     1 <0>        -0.6001
      8 H1          0.1965   -3.3127   -1.7115 H         1 <0>         0.4212
      9 C7          2.0653   -2.4481   -1.3712 C.2       1 <0>         0.2895
     10 N2          2.4560   -1.2081   -1.3189 N.2       1 <0>        -0.4796
     11 C8          2.9614   -3.6444   -1.1792 C.3       1 <0>         0.0053
     12 C9          4.1148   -3.5684   -2.1462 C.ar      1 <0>        -0.1299
     13 C10         4.0014   -4.1377   -3.4013 C.ar      1 <0>        -0.0658
     14 C11         5.0564   -4.0699   -4.2899 C.ar      1 <0>        -0.1843
     15 C12         6.2325   -3.4289   -3.9217 C.ar      1 <0>         0.2096
     16 C13         6.3431   -2.8582   -2.6601 C.ar      1 <0>        -0.1780
     17 C14         5.2821   -2.9247   -1.7784 C.ar      1 <0>        -0.0420
     18 N3          7.3016   -3.3589   -4.8177 N.pl3     1 <0>        -0.7284
     19 C15         8.5412   -2.6825   -4.4277 C.3       1 <0>         0.1290
     20 H2          8.7371   -2.8259   -3.3650 H         1 <0>         0.1373
     21 C16         9.7268   -3.1929   -5.2718 C.3       1 <0>        -0.1593
     22 C17        10.2041   -1.9543   -5.9983 C.2       1 <0>         0.5280
     23 O1         11.1316   -1.9110   -6.7777 O.2       1 <0>        -0.4615
     24 N4          9.4394   -0.9140   -5.6444 N.am      1 <0>        -0.5327
     25 C18         8.4716   -1.2085   -4.7622 C.2       1 <0>         0.5046
     26 O2          7.6691   -0.4222   -4.3068 O.2       1 <0>        -0.4404
     27 C19         9.6344    0.3785   -6.1519 C.ar      1 <0>         0.1228
     28 C20        10.0713    1.3958   -5.3143 C.ar      1 <0>        -0.0934
     29 C21        10.2626    2.6681   -5.8166 C.ar      1 <0>        -0.0778
     30 C22        10.0192    2.9292   -7.1534 C.ar      1 <0>        -0.0814
     31 C23         9.5838    1.9170   -7.9902 C.ar      1 <0>        -0.0783
     32 C24         9.3964    0.6418   -7.4940 C.ar      1 <0>        -0.0937
     33 Br1        10.2816    4.6724   -7.8376 Br        1 <0>        -0.0368
     34 H3         -2.0528    1.1828   -2.2146 H         1 <0>         0.1301
     35 H4         -0.0889    2.6213   -1.8704 H         1 <0>         0.1294
     36 H5          2.1055    1.6432   -1.4363 H         1 <0>         0.1287
     37 H6         -1.8316   -1.2633   -2.1335 H         1 <0>         0.1221
     38 H7          3.3432   -3.6523   -0.1583 H         1 <0>         0.1051
     39 H8          2.3937   -4.5567   -1.3619 H         1 <0>         0.0908
     40 H9          3.0869   -4.6362   -3.6869 H         1 <0>         0.1192
     41 H10         4.9673   -4.5150   -5.2699 H         1 <0>         0.1211
     42 H11         7.2562   -2.3594   -2.3705 H         1 <0>         0.1206
     43 H12         5.3658   -2.4773   -0.7990 H         1 <0>         0.1263
     44 H13         7.2234   -3.7581   -5.6983 H         1 <0>         0.4071
     45 H14        10.5136   -3.5876   -4.6289 H         1 <0>         0.1383
     46 H15         9.3943   -3.9500   -5.9819 H         1 <0>         0.1317
     47 H16        10.2611    1.1926   -4.2707 H         1 <0>         0.1370
     48 H17        10.6021    3.4599   -5.1653 H         1 <0>         0.1441
     49 H18         9.3942    2.1234   -9.0332 H         1 <0>         0.1435
     50 H19         9.0611   -0.1490   -8.1487 H         1 <0>         0.1354
@<TRIPOS>BOND
     1    1    6 ar
     2    1    2 ar
     3    1   34 1
     4    2    3 ar
     5    2   35 1
     6    3    4 ar
     7    3   36 1
     8    4   10 1
     9    4    5 ar
    10    5    6 ar
    11    5    7 1
    12    6   37 1
    13    7    8 1
    14    7    9 1
    15    9   10 2
    16    9   11 1
    17   11   12 1
    18   11   38 1
    19   11   39 1
    20   12   17 ar
    21   12   13 ar
    22   13   14 ar
    23   13   40 1
    24   14   15 ar
    25   14   41 1
    26   15   16 ar
    27   15   18 1
    28   16   17 ar
    29   16   42 1
    30   17   43 1
    31   18   19 1
    32   18   44 1
    33   19   20 1
    34   19   25 1
    35   19   21 1
    36   21   22 1
    37   21   45 1
    38   21   46 1
    39   22   23 2
    40   22   24 am
    41   24   25 am
    42   24   27 1
    43   25   26 2
    44   27   32 ar
    45   27   28 ar
    46   28   29 ar
    47   28   47 1
    48   29   30 ar
    49   29   48 1
    50   30   31 ar
    51   30   33 1
    52   31   32 ar
    53   31   49 1
    54   32   50 1
@<TRIPOS>MOLECULE
ZINC07365900
   42    45     0     0     0
SMALL
USER_CHARGES
N-(2-nitrophenyl)-N'-BLAHyl-ethane-1,2-diamine
@<TRIPOS>ATOM
      1 C1          8.6806    7.0566    0.0667 C.ar      1 <0>        -0.0226
      2 C2          8.9419    8.4139    0.0172 C.ar      1 <0>        -0.1700
      3 C3          7.9003    9.3188   -0.0717 C.ar      1 <0>        -0.0145
      4 C4          6.5947    8.8697   -0.1114 C.ar      1 <0>        -0.1170
      5 C5          6.3288    7.5074   -0.0620 C.ar      1 <0>         0.2787
      6 C6          7.3775    6.6011    0.0332 C.ar      1 <0>        -0.1973
      7 N1          5.0098    7.0498   -0.1020 N.pl3     1 <0>        -0.7260
      8 C7          4.7225    5.6256    0.0859 C.3       1 <0>         0.1072
      9 C8          3.2128    5.3937   -0.0032 C.3       1 <0>         0.1155
     10 N2          2.9255    3.9695    0.1847 N.pl3     1 <0>        -0.7011
     11 C9          1.6192    3.5163    0.1451 C.ar      1 <0>         0.4877
     12 C10         1.3280    2.1363    0.3261 C.ar      1 <0>        -0.2309
     13 C11         2.2658    1.0275    0.5671 C.2       1 <0>        -0.1126
     14 C12         1.7339   -0.1972    0.7077 C.2       1 <0>        -0.1739
     15 S1         -0.0201    0.0363    0.5295 S.3       1 <0>         0.1526
     16 C13        -0.0335    1.7887    0.2667 C.ar      1 <0>         0.1451
     17 N3         -0.9675    2.6955    0.0503 N.ar      1 <0>        -0.5175
     18 C14        -0.6382    3.9631   -0.1068 C.ar      1 <0>         0.3647
     19 N4          0.6209    4.3605   -0.0624 N.ar      1 <0>        -0.5861
     20 C15         2.7837   -1.2478    0.9535 C.3       1 <0>        -0.0368
     21 C16         4.0360   -0.4516    1.3815 C.3       1 <0>        -0.1150
     22 C17         3.7865    0.9109    0.7057 C.3       1 <0>        -0.0680
     23 N5          5.4804    9.8391   -0.2062 N.pl3     1 <0>         0.0356
     24 O1          5.6016   10.8417   -0.8870 O.2       1 <0>        -0.1485
     25 O2          4.4421    9.6342    0.3967 O.3       1 <0>        -0.1792
     26 H1          9.4966    6.3524    0.1365 H         1 <0>         0.1427
     27 H2          9.9618    8.7677    0.0485 H         1 <0>         0.1447
     28 H3          8.1078   10.3780   -0.1098 H         1 <0>         0.1478
     29 H4          7.1740    5.5413    0.0763 H         1 <0>         0.1432
     30 H5          4.2839    7.6750   -0.2542 H         1 <0>         0.4147
     31 H6          5.0816    5.3086    1.0650 H         1 <0>         0.0773
     32 H7          5.2252    5.0481   -0.6899 H         1 <0>         0.0748
     33 H8          2.8537    5.7107   -0.9823 H         1 <0>         0.0803
     34 H9          2.7101    5.9712    0.7726 H         1 <0>         0.0844
     35 H10         3.6514    3.3443    0.3369 H         1 <0>         0.4125
     36 H11        -1.4158    4.6925   -0.2794 H         1 <0>         0.2100
     37 H12         2.4693   -1.9203    1.7517 H         1 <0>         0.0849
     38 H13         2.9828   -1.8077    0.0397 H         1 <0>         0.0904
     39 H14         4.0804   -0.3472    2.4656 H         1 <0>         0.0799
     40 H15         4.9441   -0.9169    0.9983 H         1 <0>         0.0880
     41 H16         4.1711    1.7174    1.3299 H         1 <0>         0.0709
     42 H17         4.2589    0.9368   -0.2762 H         1 <0>         0.0837
@<TRIPOS>BOND
     1    1    6 ar
     2    1    2 ar
     3    1   26 1
     4    2    3 ar
     5    2   27 1
     6    3    4 ar
     7    3   28 1
     8    4    5 ar
     9    4   23 1
    10    5    6 ar
    11    5    7 1
    12    6   29 1
    13    7    8 1
    14    7   30 1
    15    8    9 1
    16    8   31 1
    17    8   32 1
    18    9   10 1
    19    9   33 1
    20    9   34 1
    21   10   11 1
    22   10   35 1
    23   11   19 ar
    24   11   12 ar
    25   12   16 ar
    26   12   13 1
    27   13   22 1
    28   13   14 2
    29   14   15 1
    30   14   20 1
    31   15   16 1
    32   16   17 ar
    33   17   18 ar
    34   18   19 ar
    35   18   36 1
    36   20   21 1
    37   20   37 1
    38   20   38 1
    39   21   22 1
    40   21   39 1
    41   21   40 1
    42   22   41 1
    43   22   42 1
    44   23   24 2
    45   23   25 1
@<TRIPOS>MOLECULE
ZINC18069064
   47    49     0     0     0
SMALL
USER_CHARGES
methyl 3-[(2-methoxy-5-methyl-phenyl)sulfonylamino]-5-methyl-1H-indole-2-carboxylate
@<TRIPOS>ATOM
      1 C1         -2.6667    5.1697    6.6968 C.3       1 <0>        -0.1120
      2 C2         -1.7257    5.3251    5.5300 C.ar      1 <0>        -0.1245
      3 C3         -0.7375    6.3004    5.5669 C.ar      1 <0>        -0.0667
      4 C4          0.1387    6.4529    4.5160 C.ar      1 <0>        -0.1464
      5 C5          0.0264    5.6330    3.3950 C.ar      1 <0>         0.1343
      6 C6         -0.9793    4.6494    3.3612 C.ar      1 <0>        -0.1346
      7 C7         -1.8515    4.5064    4.4445 C.ar      1 <0>        -0.0352
      8 C8         -0.8443    3.9554    2.0776 C.2       1 <0>         0.1744
      9 C9          0.2094    4.5529    1.4146 C.2       1 <0>         0.0223
     10 N1          0.7293    5.5632    2.2148 N.pl3     1 <0>        -0.5797
     11 H1          1.5652    6.2542    2.0308 H         1 <0>         0.4552
     12 C10         0.6822    4.1953    0.1293 C.2       1 <0>         0.5275
     13 O1          0.0891    3.3588   -0.5264 O.2       1 <0>        -0.4810
     14 O2          1.7909    4.7820   -0.3694 O.3       1 <0>        -0.3588
     15 C11         2.1467    4.4587   -1.7151 C.3       1 <0>         0.0344
     16 N2         -1.6261    2.9071    1.6162 N.pl3     1 <0>        -1.0324
     17 S1         -1.7762    1.5267    2.5185 S.o2      1 <0>         2.6984
     18 O3         -2.6135    0.6477    1.7799 O.2       1 <0>        -0.9410
     19 O4         -2.0845    1.9388    3.8431 O.2       1 <0>        -0.9481
     20 C12        -0.1857    0.7712    2.5835 C.ar      1 <0>        -0.7047
     21 C13         0.4817    0.6673    3.7888 C.ar      1 <0>         0.0168
     22 C14         1.7269    0.0692    3.8414 C.ar      1 <0>        -0.1444
     23 C15         2.3079   -0.4262    2.6884 C.ar      1 <0>        -0.0240
     24 C16         1.6452   -0.3240    1.4809 C.ar      1 <0>        -0.2277
     25 C17         0.3949    0.2751    1.4255 C.ar      1 <0>         0.2258
     26 O5         -0.2597    0.3756    0.2389 O.3       1 <0>        -0.2992
     27 C18         0.3459   -0.2547   -0.8916 C.3       1 <0>         0.0282
     28 C19         2.4522   -0.0436    5.1576 C.3       1 <0>        -0.1133
     29 H2         -2.4155    5.9092    7.4714 H         1 <0>         0.0633
     30 H3         -2.5707    4.1559    7.1128 H         1 <0>         0.0706
     31 H4         -3.7007    5.3305    6.3578 H         1 <0>         0.0675
     32 H5         -0.6505    6.9404    6.4325 H         1 <0>         0.1289
     33 H6          0.9025    7.2154    4.5545 H         1 <0>         0.1267
     34 H7         -2.6224    3.7503    4.4229 H         1 <0>         0.1517
     35 H8          3.0624    5.0013   -1.9927 H         1 <0>         0.1046
     36 H9          1.3289    4.7500   -2.3906 H         1 <0>         0.0639
     37 H10         2.3226    3.3760   -1.7978 H         1 <0>         0.0619
     38 H11        -2.1465    2.9925    0.6509 H         1 <0>         0.4599
     39 H12         0.0301    1.0535    4.6906 H         1 <0>         0.1489
     40 H13         3.2808   -0.8931    2.7321 H         1 <0>         0.1327
     41 H14         2.0997   -0.7104    0.5806 H         1 <0>         0.1367
     42 H15        -0.2834   -0.0972   -1.7800 H         1 <0>         0.1098
     43 H16         0.4464   -1.3332   -0.6999 H         1 <0>         0.0606
     44 H17         1.3408    0.1812   -1.0651 H         1 <0>         0.0576
     45 H18         3.4192   -0.5442    5.0016 H         1 <0>         0.0670
     46 H19         1.8447   -0.6309    5.8619 H         1 <0>         0.0726
     47 H20         2.6221    0.9619    5.5700 H         1 <0>         0.0715
@<TRIPOS>BOND
     1    1    2 1
     2    1   29 1
     3    1   30 1
     4    1   31 1
     5    2    7 ar
     6    2    3 ar
     7    3    4 ar
     8    3   32 1
     9    4    5 ar
    10    4   33 1
    11    5   10 1
    12    5    6 ar
    13    6    7 ar
    14    6    8 1
    15    7   34 1
    16    8    9 2
    17    8   16 1
    18    9   10 1
    19    9   12 1
    20   10   11 1
    21   12   13 2
    22   12   14 1
    23   14   15 1
    24   15   35 1
    25   15   36 1
    26   15   37 1
    27   16   17 1
    28   16   38 1
    29   17   18 2
    30   17   19 2
    31   17   20 1
    32   20   25 ar
    33   20   21 ar
    34   21   22 ar
    35   21   39 1
    36   22   23 ar
    37   22   28 1
    38   23   24 ar
    39   23   40 1
    40   24   25 ar
    41   24   41 1
    42   25   26 1
    43   26   27 1
    44   27   42 1
    45   27   43 1
    46   27   44 1
    47   28   45 1
    48   28   46 1
    49   28   47 1
@<TRIPOS>MOLECULE
ZINC45766265
   48    51     0     0     0
SMALL
USER_CHARGES

@<TRIPOS>ATOM
      1 C1         -2.9346   -6.9722    2.3356 C.ar      1 <0>        -0.2936
      2 C2         -2.3661   -8.1251    2.8540 C.ar      1 <0>         0.1934
      3 N1         -1.0669   -8.3260    2.7078 N.ar      1 <0>        -0.5725
      4 C3         -0.3117   -7.4404    2.0746 C.ar      1 <0>         0.5621
      5 N2         -0.8238   -6.3284    1.5679 N.ar      1 <0>        -0.5699
      6 C4         -2.1157   -6.0670    1.6791 C.ar      1 <0>         0.1916
      7 N3          1.0443   -7.6824    1.9396 N.pl3     1 <0>        -0.6993
      8 C5          1.8953   -6.7148    1.2427 C.3       1 <0>         0.1384
      9 C6          3.3397   -7.2193    1.2338 C.3       1 <0>        -0.1206
     10 C7          4.2284   -6.2088    0.5060 C.3       1 <0>        -0.1334
     11 C8          5.6511   -6.7057    0.4973 C.2       1 <0>         0.5129
     12 O1          5.9271   -7.7641    1.0217 O.2       1 <0>        -0.5143
     13 N4          6.6168   -5.9742   -0.0932 N.am      1 <0>        -0.6713
     14 C9          7.9534   -6.3872   -0.0178 C.ar      1 <0>         0.1536
     15 C10         8.9671   -5.4433    0.0790 C.ar      1 <0>        -0.1347
     16 C11        10.2867   -5.8483    0.1536 C.ar      1 <0>        -0.0815
     17 C12        10.6002   -7.1958    0.1329 C.ar      1 <0>         0.0149
     18 C13         9.5839   -8.1464    0.0366 C.ar      1 <0>         0.0514
     19 C14         8.2637   -7.7406   -0.0340 C.ar      1 <0>        -0.1048
     20 O2         10.1573   -9.3913    0.0393 O.3       1 <0>        -0.2922
     21 C15        11.5132   -9.1467   -0.3608 C.3       1 <0>         0.2540
     22 O3         11.8014   -7.8548    0.1927 O.3       1 <0>        -0.2922
     23 C16        11.6511   -9.1429   -1.8867 C.3       1 <0>        -0.1589
     24 C17        13.0522   -9.7599   -2.1372 C.3       1 <0>        -0.1207
     25 C18        13.1518  -10.8488   -1.0389 C.3       1 <0>        -0.1232
     26 C19        12.4594  -10.2144    0.1884 C.3       1 <0>        -0.1178
     27 H1         -3.9935   -6.7854    2.4371 H         1 <0>         0.1446
     28 H2         -2.9765   -8.8504    3.3715 H         1 <0>         0.1675
     29 H3         -2.5274   -5.1592    1.2634 H         1 <0>         0.1673
     30 H4          1.4312   -8.4927    2.3065 H         1 <0>         0.4154
     31 H5          1.5457   -6.5959    0.2171 H         1 <0>         0.0688
     32 H6          1.8490   -5.7543    1.7560 H         1 <0>         0.0689
     33 H7          3.6893   -7.3382    2.2594 H         1 <0>         0.0802
     34 H8          3.3859   -8.1798    0.7206 H         1 <0>         0.0801
     35 H9          3.8788   -6.0899   -0.5196 H         1 <0>         0.1036
     36 H10         4.1822   -5.2483    1.0192 H         1 <0>         0.1041
     37 H11         6.3865   -5.1617   -0.5704 H         1 <0>         0.4158
     38 H12         8.7243   -4.3911    0.0957 H         1 <0>         0.1418
     39 H13        11.0735   -5.1123    0.2284 H         1 <0>         0.1405
     40 H14         7.4752   -8.4753   -0.1051 H         1 <0>         0.1507
     41 H15        10.8753   -9.7583   -2.3422 H         1 <0>         0.0934
     42 H16        11.6076   -8.1241   -2.2720 H         1 <0>         0.0837
     43 H17        13.1049  -10.2072   -3.1299 H         1 <0>         0.0789
     44 H18        13.8326   -9.0099   -2.0089 H         1 <0>         0.0758
     45 H19        12.6264  -11.7522   -1.3487 H         1 <0>         0.0757
     46 H20        14.1953  -11.0710   -0.8156 H         1 <0>         0.0800
     47 H21        13.2016   -9.7569    0.8425 H         1 <0>         0.0962
     48 H22        11.8948  -10.9712    0.7330 H         1 <0>         0.0957
@<TRIPOS>BOND
     1    1    6 ar
     2    1    2 ar
     3    1   27 1
     4    2    3 ar
     5    2   28 1
     6    3    4 ar
     7    4    5 ar
     8    4    7 1
     9    5    6 ar
    10    6   29 1
    11    7    8 1
    12    7   30 1
    13    8    9 1
    14    8   31 1
    15    8   32 1
    16    9   10 1
    17    9   33 1
    18    9   34 1
    19   10   11 1
    20   10   35 1
    21   10   36 1
    22   11   12 2
    23   11   13 am
    24   13   14 1
    25   13   37 1
    26   14   19 ar
    27   14   15 ar
    28   15   16 ar
    29   15   38 1
    30   16   17 ar
    31   16   39 1
    32   17   22 1
    33   17   18 ar
    34   18   19 ar
    35   18   20 1
    36   19   40 1
    37   20   21 1
    38   21   26 1
    39   21   22 1
    40   21   23 1
    41   23   24 1
    42   23   41 1
    43   23   42 1
    44   24   25 1
    45   24   43 1
    46   24   44 1
    47   25   26 1
    48   25   45 1
    49   25   46 1
    50   26   47 1
    51   26   48 1
@<TRIPOS>MOLECULE
ZINC63839842
   38    39     0     0     0
SMALL
USER_CHARGES

@<TRIPOS>ATOM
      1 C1         -0.0163    1.3787    0.0041 C.ar      1 <0>        -0.1191
      2 C2          1.1673    2.0879   -0.0005 C.ar      1 <0>        -0.0363
      3 C3          2.3852    1.4067   -0.0063 C.ar      1 <0>        -0.1339
      4 C4          2.3973    0.0108   -0.0074 C.ar      1 <0>         0.0036
      5 C5          1.2069   -0.6861   -0.0028 C.ar      1 <0>        -0.0548
      6 C6          0.0026   -0.0045    0.0029 C.ar      1 <0>        -0.0286
      7 N1          1.2177   -2.1662   -0.0041 N.pl3     1 <0>         0.0307
      8 O1          2.2691   -2.7631   -0.0091 O.2       1 <0>        -0.1478
      9 O2          0.1751   -2.7784   -0.0000 O.3       1 <0>        -0.1499
     10 C7          3.6573    2.1601   -0.0117 C.2       1 <0>         0.5679
     11 O3          4.7167    1.5641   -0.0167 O.2       1 <0>        -0.5184
     12 N2          3.6423    3.5078   -0.0110 N.am      1 <0>        -0.7146
     13 C8          4.9028    4.2543   -0.0163 C.3       1 <0>         0.1023
     14 C9          4.6110    5.7328   -0.0143 C.2       1 <0>         0.5155
     15 O4          3.4631    6.1244   -0.0090 O.2       1 <0>        -0.5150
     16 N3          5.6256    6.6200   -0.0185 N.am      1 <0>        -0.6644
     17 C10         5.3566    7.9908   -0.1147 C.ar      1 <0>         0.1307
     18 C11         4.2279    8.5224    0.4952 C.ar      1 <0>        -0.0581
     19 C12         3.9644    9.8745    0.3991 C.ar      1 <0>        -0.1335
     20 C13         4.8246   10.7002   -0.3054 C.ar      1 <0>         0.1425
     21 C14         5.9504   10.1723   -0.9142 C.ar      1 <0>        -0.2027
     22 C15         6.2209    8.8212   -0.8153 C.ar      1 <0>        -0.0668
     23 C16         6.8845   11.0730   -1.6806 C.3       1 <0>         0.5147
     24 F1          7.9401   10.3163   -2.2005 F         1 <0>        -0.1722
     25 F2          6.1878   11.6836   -2.7290 F         1 <0>        -0.1693
     26 F3          7.3925   12.0553   -0.8238 F         1 <0>        -0.1694
     27 F4          4.5646   12.0227   -0.3990 F         1 <0>        -0.1198
     28 H1         -0.9595    1.9047    0.0131 H         1 <0>         0.1582
     29 H2          1.1512    3.1678    0.0001 H         1 <0>         0.1484
     30 H3          3.3365   -0.5224   -0.0123 H         1 <0>         0.1684
     31 H4         -0.9266   -0.5549    0.0068 H         1 <0>         0.1615
     32 H5          2.7970    3.9834   -0.0070 H         1 <0>         0.4132
     33 H6          5.4813    3.9970    0.8709 H         1 <0>         0.1125
     34 H7          5.4733    3.9978   -0.9090 H         1 <0>         0.1128
     35 H8          6.5422    6.3089    0.0451 H         1 <0>         0.4215
     36 H9          3.5565    7.8787    1.0441 H         1 <0>         0.1596
     37 H10         3.0868   10.2883    0.8733 H         1 <0>         0.1557
     38 H11         7.1016    8.4105   -1.2866 H         1 <0>         0.1549
@<TRIPOS>BOND
     1    1    6 ar
     2    1    2 ar
     3    1   28 1
     4    2    3 ar
     5    2   29 1
     6    3    4 ar
     7    3   10 1
     8    4    5 ar
     9    4   30 1
    10    5    6 ar
    11    5    7 1
    12    6   31 1
    13    7    8 2
    14    7    9 1
    15   10   11 2
    16   10   12 am
    17   12   13 1
    18   12   32 1
    19   13   14 1
    20   13   33 1
    21   13   34 1
    22   14   15 2
    23   14   16 am
    24   16   17 1
    25   16   35 1
    26   17   22 ar
    27   17   18 ar
    28   18   19 ar
    29   18   36 1
    30   19   20 ar
    31   19   37 1
    32   20   21 ar
    33   20   27 1
    34   21   22 ar
    35   21   23 1
    36   22   38 1
    37   23   24 1
    38   23   25 1
    39   23   26 1
