@<TRIPOS>MOLECULE
1UYG-PU2
 36 38 0 0 0
SMALL
SF_CHARGES


@<TRIPOS>ATOM
1    C         7.6810   10.0890   22.8450  C.3        1 SUBUNIT      0.1659
2    N         2.2600    9.9580   25.3190  N.pl3      1 SUBUNIT     -0.3379
3    C         1.0480   10.0930   25.7560  C.2        1 SUBUNIT      0.3444
4    N         0.5710    9.6940   26.9140  N.2        1 SUBUNIT     -0.5519
5    C        -0.7110    9.9290   27.0940  C.2        1 SUBUNIT      0.6874
6    C         3.5150   10.5050   23.2700  C.3        1 SUBUNIT     -0.0348
7    N        -1.5560   10.4980   26.2430  N.2        1 SUBUNIT     -0.5511
8    C         0.2840   10.6970   24.8250  C.2        1 SUBUNIT      0.2042
9    C        -1.0660   10.8650   25.0730  C.2        1 SUBUNIT      0.3670
10   N        -1.9680   11.4750   24.1540  N.pl3      1 SUBUNIT     -0.6747
11   N         1.0320   10.9440   23.7520  N.2        1 SUBUNIT     -0.5232
12   C         2.2550   10.4610   24.0760  C.2        1 SUBUNIT      0.3327
13   C         5.7960   11.5440   23.4120  C.2        1 SUBUNIT      0.1448
14   C         4.4370   11.6390   23.6640  C.2        1 SUBUNIT     -0.0582
15   C         3.9210   12.7510   24.2870  C.2        1 SUBUNIT     -0.1241
16   C         6.6830   12.5560   23.7270  C.2        1 SUBUNIT     -0.1214
17   C         6.1770   13.6970   24.3390  C.2        1 SUBUNIT     -0.1216
18   C         4.8010   13.7840   24.6080  C.2        1 SUBUNIT      0.1475
19   F        -1.3040    9.4820   28.5200  F          1 SUBUNIT     -0.2221
20   O         4.2350   14.9180   25.2610  O.3        1 SUBUNIT     -0.3887
21   O         6.2690   10.3840   22.8050  O.3        1 SUBUNIT     -0.3879
22   C         5.0310   16.0220   25.7110  C.3        1 SUBUNIT      0.1559
23   H         8.2614   10.8819   22.3617  H          1 SUBUNIT      0.0371
24   H         7.9002    9.1488   22.3283  H          1 SUBUNIT      0.0371
25   H         8.0333    9.9957   23.8776  H          1 SUBUNIT      0.0371
26   H         4.0461    9.5574   23.4082  H          1 SUBUNIT      0.0455
27   H         3.2457   10.6227   22.2152  H          1 SUBUNIT      0.0455
28   H        -1.6404   11.7721   23.2482  H          1 SUBUNIT      0.3261
29   H        -2.9337   11.6095   24.4097  H          1 SUBUNIT      0.3261
30   H         3.1063   10.1057   25.8463  H          1 SUBUNIT      0.3123
31   H         2.8717   12.8152   24.5163  H          1 SUBUNIT      0.1046
32   H         7.7314   12.4609   23.5044  H          1 SUBUNIT      0.1031
33   H         6.8382   14.5039   24.6024  H          1 SUBUNIT      0.1017
34   H         5.7774   15.6952   26.4425  H          1 SUBUNIT      0.0240
35   H         4.4079   16.7876   26.1851  H          1 SUBUNIT      0.0240
36   H         5.5613   16.4899   24.8750  H          1 SUBUNIT      0.0240
@<TRIPOS>BOND
     1    1   21 1
     2    2    3 1
     3    2   12 1
     4    3    4 1
     5    3    8 2
     6    4    5 2
     7    5    7 1
     8    5   19 1
     9    6   12 1
    10    6   14 1
    11    7    9 2
    12    8    9 1
    13    8   11 1
    14    9   10 1
    15   11   12 2
    16   13   14 2
    17   13   16 1
    18   13   21 1
    19   14   15 1
    20   15   18 2
    21   16   17 2
    22   17   18 1
    23   18   20 1
    24   20   22 1
    25    1   23 1
    26    1   24 1
    27    1   25 1
    28    6   26 1
    29    6   27 1
    30   10   28 1
    31   10   29 1
    32    2   30 1
    33   15   31 1
    34   16   32 1
    35   17   33 1
    36   22   34 1
    37   22   35 1
    38   22   36 1
