@<TRIPOS>MOLECULE
CHEMBL227937
   40    39     0     0     0
SMALL
USER_CHARGES

@<TRIPOS>ATOM
      1 C1         -0.0117    1.5287   -0.1466 C.3       1 <0>        -0.1482
      2 C2          0.0130    0.0014   -0.2331 C.3       1 <0>        -0.1458
      3 C3         -1.4208   -0.5325   -0.2382 C.3       1 <0>         0.0354
      4 H1         -1.9814   -0.0605   -1.0450 H         1 <0>         0.1594
      5 C4         -1.4002   -2.0476   -0.4499 C.3       1 <0>         0.0315
      6 N1         -2.7658   -2.5767   -0.3355 N.3       1 <0>        -0.6879
      7 C5         -2.7848   -4.0321   -0.5335 C.3       1 <0>         0.0273
      8 C6         -4.2207   -4.5453   -0.4073 C.3       1 <0>        -0.0101
      9 N2         -4.2397   -6.0007   -0.6053 N.4       1 <0>        -0.6360
     10 N3         -2.0618   -0.2264    1.0477 N.4       1 <0>        -0.6435
     11 C7          1.4221    2.0625   -0.1416 C.3       1 <0>         0.1054
     12 N4          1.3984    3.5250   -0.0588 N.pl3     1 <0>        -0.6888
     13 C8          2.5553    4.2182   -0.0399 C.2       1 <0>         0.7115
     14 N5          3.7340    3.5650   -0.0974 N.pl3     1 <0>        -0.8398
     15 N6          2.5335    5.5627    0.0362 N.2       1 <0>        -0.4947
     16 N7          3.6342    6.2311   -0.0411 N.pl3     1 <0>         0.1835
     17 O1          4.0483    6.6853   -1.2058 O.2       1 <0>        -0.2223
     18 O2          4.3437    6.4591    1.0447 O.3       1 <0>        -0.2332
     19 H2         -0.5468    1.9327   -1.0060 H         1 <0>         0.1004
     20 H3         -0.5157    1.8325    0.7708 H         1 <0>         0.0759
     21 H4          0.5171   -0.3025   -1.1506 H         1 <0>         0.1254
     22 H5          0.5481   -0.4026    0.6263 H         1 <0>         0.0997
     23 H6         -1.0060   -2.2706   -1.4413 H         1 <0>         0.1313
     24 H7         -0.7663   -2.5115    0.3059 H         1 <0>         0.0719
     25 H8         -3.1772   -2.3270    0.5514 H         1 <0>         0.3368
     26 H9         -2.4003   -4.2689   -1.5255 H         1 <0>         0.1104
     27 H10        -2.1606   -4.5098    0.2217 H         1 <0>         0.0678
     28 H11        -4.6053   -4.3085    0.5847 H         1 <0>         0.1336
     29 H12        -4.8449   -4.0677   -1.1625 H         1 <0>         0.1474
     30 H13        -5.1866   -6.3391   -0.5221 H         1 <0>         0.4488
     31 H14        -3.8837   -6.2199   -1.5237 H         1 <0>         0.4411
     32 H15        -3.0073   -0.5785    1.0444 H         1 <0>         0.4341
     33 H16        -1.5428   -0.6633    1.7946 H         1 <0>         0.4339
     34 H17         1.9572    1.6586    0.7178 H         1 <0>         0.0848
     35 H18         1.9262    1.7587   -1.0591 H         1 <0>         0.0902
     36 H19         0.5508    3.9948   -0.0175 H         1 <0>         0.4340
     37 H20         3.7538    2.5960   -0.0591 H         1 <0>         0.4165
     38 H21         4.5618    4.0643   -0.1769 H         1 <0>         0.4318
     39 H22        -3.6619   -6.4429    0.0937 H         1 <0>         0.4377
     40 H23        -2.0754    0.7728    1.1873 H         1 <0>         0.4431
@<TRIPOS>BOND
     1    1    2 1
     2    1   11 1
     3    1   19 1
     4    1   20 1
     5    2    3 1
     6    2   21 1
     7    2   22 1
     8    3    4 1
     9    3    5 1
    10    3   10 1
    11    5    6 1
    12    5   23 1
    13    5   24 1
    14    6    7 1
    15    6   25 1
    16    7    8 1
    17    7   26 1
    18    7   27 1
    19    8    9 1
    20    8   28 1
    21    8   29 1
    22    9   30 1
    23    9   31 1
    24    9   39 1
    25   10   32 1
    26   10   33 1
    27   10   40 1
    28   11   12 1
    29   11   34 1
    30   11   35 1
    31   12   13 1
    32   12   36 1
    33   13   14 1
    34   13   15 2
    35   14   37 1
    36   14   38 1
    37   15   16 1
    38   16   17 2
    39   16   18 1
@<TRIPOS>MOLECULE
CHEMBL315966
   27    29     0     0     0
SMALL
USER_CHARGES

@<TRIPOS>ATOM
      1 C1         -0.0166    1.3754    0.0096 C.ar      1 <0>        -0.1056
      2 C2          1.1687    2.0882    0.0021 C.ar      1 <0>        -0.0781
      3 C3          2.3722    1.4129   -0.0156 C.ar      1 <0>        -0.1255
      4 C4          2.3911    0.0223   -0.0245 C.ar      1 <0>         0.1276
      5 C5          1.2077   -0.6943   -0.0127 C.ar      1 <0>        -0.1096
      6 C6          0.0021   -0.0041    0.0020 C.ar      1 <0>        -0.0815
      7 C7          1.1568   -2.1973   -0.0084 C.3       1 <0>        -0.0712
      8 H1          0.7470   -2.5781    0.9271 H         1 <0>         0.1333
      9 C8          0.3124   -2.6511   -1.2283 C.3       1 <0>         0.0595
     10 O1          1.2167   -2.6318   -2.3439 O.3       1 <0>        -0.3555
     11 C9          2.5660   -2.7725   -1.8814 C.3       1 <0>         0.0731
     12 C10         2.5311   -2.8229   -0.3192 C.3       1 <0>        -0.1338
     13 H2          2.5802   -3.8511    0.0392 H         1 <0>         0.1508
     14 C11         3.6281   -1.9843    0.2779 C.cat     1 <0>         0.5648
     15 N1          3.6298   -0.6350   -0.0504 N.pl3     1 <0>        -0.6404
     16 N2          4.5372   -2.5102    1.0327 N.pl3     1 <0>        -0.6882
     17 H3         -0.9602    1.9006    0.0260 H         1 <0>         0.1420
     18 H4          1.1525    3.1680    0.0097 H         1 <0>         0.1447
     19 H5          3.3004    1.9650   -0.0229 H         1 <0>         0.1395
     20 H6         -0.9285   -0.5521    0.0079 H         1 <0>         0.1421
     21 H7         -0.0696   -3.6595   -1.0692 H         1 <0>         0.0861
     22 H8         -0.5107   -1.9568   -1.3972 H         1 <0>         0.1090
     23 H9          2.9961   -3.6954   -2.2705 H         1 <0>         0.0990
     24 H10         3.1601   -1.9191   -2.2082 H         1 <0>         0.0815
     25 H11         4.5194   -3.4612    1.2226 H         1 <0>         0.4543
     26 H12         5.2369   -1.9535    1.4089 H         1 <0>         0.4390
     27 H13         4.4496   -0.1606   -0.2596 H         1 <0>         0.4431
@<TRIPOS>BOND
     1    1    6 ar
     2    1    2 ar
     3    1   17 1
     4    2    3 ar
     5    2   18 1
     6    3    4 ar
     7    3   19 1
     8    4   15 1
     9    4    5 ar
    10    5    6 ar
    11    5    7 1
    12    6   20 1
    13    7    8 1
    14    7   12 1
    15    7    9 1
    16    9   10 1
    17    9   21 1
    18    9   22 1
    19   10   11 1
    20   11   12 1
    21   11   23 1
    22   11   24 1
    23   12   13 1
    24   12   14 1
    25   14   15 1
    26   14   16 2
    27   15   27 1
    28   16   25 1
    29   16   26 1
@<TRIPOS>MOLECULE
CHEMBL1221659
   38    39     0     0     0
SMALL
USER_CHARGES

@<TRIPOS>ATOM
      1 C1         -0.0184    1.5028    0.0103 C.3       1 <0>        -0.1435
      2 C2          0.0021   -0.0041    0.0020 C.ar      1 <0>         0.0798
      3 C3          0.0062   -0.7075   -1.1955 C.ar      1 <0>        -0.1629
      4 C4          0.0255   -2.0874   -1.1689 C.ar      1 <0>         0.1842
      5 N1          0.0401   -2.7422   -0.0232 N.ar      1 <0>        -0.5060
      6 C5          0.0364   -2.1079    1.1389 C.ar      1 <0>         0.4600
      7 C6          0.0230   -0.7174    1.1866 C.ar      1 <0>        -0.2057
      8 N2          0.0518   -2.8376    2.3220 N.pl3     1 <0>        -0.8208
      9 C7          0.0295   -2.8562   -2.4651 C.3       1 <0>        -0.1148
     10 C8          1.4659   -2.9882   -2.9753 C.3       1 <0>         0.1223
     11 N3          1.4698   -3.7356   -4.2353 N.am      1 <0>        -0.7322
     12 C9          2.6327   -3.9757   -4.8728 C.2       1 <0>         0.5649
     13 O1          3.6782   -3.5722   -4.4023 O.2       1 <0>        -0.5195
     14 C10         2.6367   -4.7303   -6.1449 C.ar      1 <0>        -0.1179
     15 C11         1.4349   -5.1889   -6.6882 C.ar      1 <0>        -0.0867
     16 C12         1.4383   -5.8915   -7.8727 C.ar      1 <0>        -0.0778
     17 C13         2.6440   -6.1454   -8.5306 C.ar      1 <0>         0.0123
     18 C14         3.8460   -5.6865   -7.9869 C.ar      1 <0>        -0.0750
     19 C15         3.8415   -4.9790   -6.8052 C.ar      1 <0>        -0.0553
     20 C16         2.6479   -6.8763   -9.7619 C.1       1 <0>         0.2368
     21 N4          2.6509   -7.4562  -10.7388 N.1       1 <0>        -0.3875
     22 H1          1.0042    1.8801    0.0026 H         1 <0>         0.1084
     23 H2         -0.5455    1.8639   -0.8728 H         1 <0>         0.0966
     24 H3         -0.5286    1.8543    0.9071 H         1 <0>         0.0947
     25 H4         -0.0061   -0.1802   -2.1379 H         1 <0>         0.1815
     26 H5          0.0246   -0.2022    2.1358 H         1 <0>         0.1806
     27 H6          0.0651   -3.8071    2.2937 H         1 <0>         0.4218
     28 H7          0.0491   -2.3773    3.1758 H         1 <0>         0.4415
     29 H8         -0.3902   -3.8485   -2.3002 H         1 <0>         0.1070
     30 H9         -0.5712   -2.3258   -3.2040 H         1 <0>         0.1306
     31 H10         1.8856   -1.9959   -3.1401 H         1 <0>         0.0869
     32 H11         2.0666   -3.5186   -2.2364 H         1 <0>         0.0754
     33 H12         0.6354   -4.0576   -4.6107 H         1 <0>         0.4061
     34 H13         0.5027   -4.9929   -6.1793 H         1 <0>         0.1351
     35 H14         0.5088   -6.2465   -8.2927 H         1 <0>         0.1436
     36 H15         4.7784   -5.8827   -8.4953 H         1 <0>         0.1460
     37 H16         4.7705   -4.6204   -6.3871 H         1 <0>         0.1498
     38 H17         0.0536   -3.7120   -0.0328 H         1 <0>         0.4396
@<TRIPOS>BOND
     1    1    2 1
     2    1   22 1
     3    1   23 1
     4    1   24 1
     5    2    7 ar
     6    2    3 ar
     7    3    4 ar
     8    3   25 1
     9    4    5 ar
    10    4    9 1
    11    5    6 ar
    12    5   38 1
    13    6    7 ar
    14    6    8 1
    15    7   26 1
    16    8   27 1
    17    8   28 1
    18    9   10 1
    19    9   29 1
    20    9   30 1
    21   10   11 1
    22   10   31 1
    23   10   32 1
    24   11   12 am
    25   11   33 1
    26   12   13 2
    27   12   14 1
    28   14   19 ar
    29   14   15 ar
    30   15   16 ar
    31   15   34 1
    32   16   17 ar
    33   16   35 1
    34   17   18 ar
    35   17   20 1
    36   18   19 ar
    37   18   36 1
    38   19   37 1
    39   20   21 3
@<TRIPOS>MOLECULE
CHEMBL1221703
   29    30     0     0     0
SMALL
USER_CHARGES

@<TRIPOS>ATOM
      1 C1         -0.1733    1.5106    2.3896 C.3       1 <0>        -0.1552
      2 C2         -0.1526   -0.0193    2.3812 C.3       1 <0>        -0.1242
      3 C3          0.7421   -0.5109    1.2415 C.3       1 <0>        -0.1762
      4 C4          0.7628   -2.0407    1.2331 C.3       1 <0>         0.0814
      5 H1         -0.2665   -2.3994    1.2410 H         1 <0>         0.1434
      6 C5          1.4551   -2.5239    2.5097 C.3       1 <0>         0.0505
      7 O1          2.8659   -2.3524    2.4158 O.3       1 <0>        -0.3020
      8 C6          3.3159   -1.1873    1.8643 C.2       1 <0>         0.1969
      9 C7          3.9863   -0.1669    2.5261 C.2       1 <0>        -0.2011
     10 C8          4.3363    0.9519    1.8474 C.2       1 <0>        -0.1638
     11 S1          3.7828    0.6787    0.2808 S.3       1 <0>         0.3486
     12 C9          3.1098   -0.9330    0.5171 C.2       1 <0>        -0.3887
     13 C10         2.4999   -1.8769   -0.4064 C.cat     1 <0>         0.6475
     14 N1          1.3987   -2.4877    0.0003 N.pl3     1 <0>        -0.6132
     15 N2          3.0468   -2.1252   -1.6500 N.pl3     1 <0>        -0.7776
     16 H2         -0.5634    1.8739    1.4388 H         1 <0>         0.0593
     17 H3         -0.8107    1.8608    3.2015 H         1 <0>         0.0669
     18 H4          0.8393    1.8869    2.5344 H         1 <0>         0.0552
     19 H5          0.2375   -0.3826    3.3319 H         1 <0>         0.0707
     20 H6         -1.1653   -0.3956    2.2363 H         1 <0>         0.0739
     21 H7          0.3520   -0.1476    0.2908 H         1 <0>         0.0862
     22 H8          1.7547   -0.1346    1.3864 H         1 <0>         0.0954
     23 H9          1.0801   -1.9531    3.3592 H         1 <0>         0.1059
     24 H10         1.2315   -3.5799    2.6613 H         1 <0>         0.1280
     25 H11         4.2266   -0.2646    3.5745 H         1 <0>         0.1644
     26 H12         4.8533    1.8216    2.2252 H         1 <0>         0.2158
     27 H13         3.8557   -1.6657   -1.9246 H         1 <0>         0.4438
     28 H14         2.6220   -2.7592   -2.2488 H         1 <0>         0.4327
     29 H15         1.0207   -3.2172   -0.5153 H         1 <0>         0.4356
@<TRIPOS>BOND
     1    1    2 1
     2    1   16 1
     3    1   17 1
     4    1   18 1
     5    2    3 1
     6    2   19 1
     7    2   20 1
     8    3    4 1
     9    3   21 1
    10    3   22 1
    11    4    5 1
    12    4   14 1
    13    4    6 1
    14    6    7 1
    15    6   23 1
    16    6   24 1
    17    7    8 1
    18    8   12 2
    19    8    9 1
    20    9   10 2
    21    9   25 1
    22   10   11 1
    23   10   26 1
    24   11   12 1
    25   12   13 1
    26   13   14 2
    27   13   15 1
    28   14   29 1
    29   15   27 1
    30   15   28 1
@<TRIPOS>MOLECULE
CHEMBL362772
   19    19     0     0     0
SMALL
USER_CHARGES

@<TRIPOS>ATOM
      1 C1         -0.0185    1.5154    0.0104 C.3       1 <0>        -0.1859
      2 C2          1.4106    2.0671   -0.0003 C.3       1 <0>         0.0750
      3 N1          1.8972    2.1248    1.3851 N.pl3     1 <0>        -0.6057
      4 C3          2.1600    1.0409    2.0201 C.cat     1 <0>         0.5007
      5 C4          1.9822   -0.2983    1.3372 C.3       1 <0>         0.0656
      6 O1          0.5872   -0.5557    1.1737 O.3       1 <0>        -0.3424
      7 C5          0.0021   -0.0041    0.0020 C.3       1 <0>         0.0369
      8 N2          2.6019    1.0959    3.3158 N.pl3     1 <0>        -0.7785
      9 H1         -0.5332    1.8643    0.9056 H         1 <0>         0.0920
     10 H2         -0.5502    1.8738   -0.8711 H         1 <0>         0.1218
     11 H3          2.0526    1.4101   -0.5870 H         1 <0>         0.1146
     12 H4          1.4137    3.0681   -0.4317 H         1 <0>         0.1328
     13 H5          2.4660   -0.2768    0.3607 H         1 <0>         0.1221
     14 H6          2.4283   -1.0820    1.9495 H         1 <0>         0.1500
     15 H7         -1.0215   -0.3687   -0.0843 H         1 <0>         0.1237
     16 H8          0.5676   -0.3429   -0.8660 H         1 <0>         0.0749
     17 H9          2.7161    1.9541    3.7532 H         1 <0>         0.4271
     18 H10         2.8004    0.2767    3.7957 H         1 <0>         0.4456
     19 H11         2.0197    2.9831    1.8202 H         1 <0>         0.4296
@<TRIPOS>BOND
     1    1    7 1
     2    1    2 1
     3    1    9 1
     4    1   10 1
     5    2    3 1
     6    2   11 1
     7    2   12 1
     8    3    4 2
     9    3   19 1
    10    4    5 1
    11    4    8 1
    12    5    6 1
    13    5   13 1
    14    5   14 1
    15    6    7 1
    16    7   15 1
    17    7   16 1
    18    8   17 1
    19    8   18 1
@<TRIPOS>MOLECULE
CHEMBL315194
   29    29     0     0     0
SMALL
USER_CHARGES

@<TRIPOS>ATOM
      1 C1          1.3481    1.6441    0.3233 C.3       1 <0>        -0.1487
      2 C2          2.7682    1.5952    0.8625 C.3       1 <0>        -0.1221
      3 C3          2.8005    0.9104    2.2310 C.3       1 <0>        -0.1593
      4 C4          2.8833   -0.5856    2.0205 C.cat     1 <0>         0.5367
      5 N1          1.8700   -1.2367    1.5930 N.pl3     1 <0>        -0.6088
      6 C5          0.6055   -0.5446    1.2996 C.3       1 <0>         0.1287
      7 C6          0.7756    0.2704    0.0163 C.3       1 <0>        -0.1455
      8 C7          0.2522    0.3909    2.4575 C.3       1 <0>        -0.1899
      9 C8         -1.2685    0.4612    2.6107 C.3       1 <0>        -0.0206
     10 N2         -1.6068    1.3569    3.7195 N.pl3     1 <0>        -0.0191
     11 O1         -2.4872    2.1751    3.5886 O.2       1 <0>        -0.1356
     12 O2         -1.0055    1.2780    4.7654 O.3       1 <0>        -0.1560
     13 N3          4.0524   -1.2469    2.2904 N.pl3     1 <0>        -0.7876
     14 H1          0.7105    2.1323    1.0604 H         1 <0>         0.0819
     15 H2          1.3409    2.2385   -0.5903 H         1 <0>         0.0968
     16 H3          3.3976    1.0395    0.1675 H         1 <0>         0.0803
     17 H4          3.1510    2.6111    0.9598 H         1 <0>         0.1086
     18 H5          3.6726    1.2501    2.7896 H         1 <0>         0.1289
     19 H6          1.8922    1.1525    2.7828 H         1 <0>         0.1514
     20 H7         -0.1895   -1.2779    1.1641 H         1 <0>         0.1405
     21 H8         -0.1947    0.3857   -0.4669 H         1 <0>         0.1097
     22 H9          1.4507   -0.2575   -0.6573 H         1 <0>         0.0913
     23 H10         0.6930    0.0109    3.3791 H         1 <0>         0.1124
     24 H11         0.6430    1.3874    2.2518 H         1 <0>         0.1345
     25 H12        -1.7093    0.8412    1.6891 H         1 <0>         0.1440
     26 H13        -1.6594   -0.5353    2.8165 H         1 <0>         0.1443
     27 H14         4.8234   -0.7560    2.6153 H         1 <0>         0.4450
     28 H15         4.1092   -2.2059    2.1567 H         1 <0>         0.4268
     29 H16         1.9354   -2.1954    1.4606 H         1 <0>         0.4315
@<TRIPOS>BOND
     1    1    7 1
     2    1    2 1
     3    1   14 1
     4    1   15 1
     5    2    3 1
     6    2   16 1
     7    2   17 1
     8    3    4 1
     9    3   18 1
    10    3   19 1
    11    4    5 2
    12    4   13 1
    13    5    6 1
    14    5   29 1
    15    6    7 1
    16    6    8 1
    17    6   20 1
    18    7   21 1
    19    7   22 1
    20    8    9 1
    21    8   23 1
    22    8   24 1
    23    9   10 1
    24    9   25 1
    25    9   26 1
    26   10   11 2
    27   10   12 1
    28   13   27 1
    29   13   28 1
@<TRIPOS>MOLECULE
CHEMBL315194__1
   29    29     0     0     0
SMALL
USER_CHARGES

@<TRIPOS>ATOM
      1 C1          0.9429    1.6750   -0.1726 C.3       1 <0>        -0.1512
      2 C2          2.3972    1.8389   -0.5823 C.3       1 <0>        -0.1207
      3 C3          2.6347    1.2441   -1.9724 C.3       1 <0>        -0.1598
      4 C4          2.8965   -0.2388   -1.8248 C.cat     1 <0>         0.5355
      5 N1          1.9459   -1.0375   -1.5217 N.pl3     1 <0>        -0.6094
      6 C5          0.5806   -0.5306   -1.3135 C.3       1 <0>         0.1281
      7 C6          0.5332    0.2240    0.0172 C.3       1 <0>        -0.1448
      8 C7          0.2061    0.4176   -2.4543 C.3       1 <0>        -0.1898
      9 C8         -1.2918    0.3010   -2.7435 C.3       1 <0>        -0.0207
     10 N2         -1.6504    1.2090   -3.8358 N.pl3     1 <0>        -0.0189
     11 O1         -2.3665    0.8247   -4.7309 O.2       1 <0>        -0.1400
     12 O2         -1.2303    2.3426   -3.8422 O.3       1 <0>        -0.1518
     13 N3          4.1613   -0.7288   -2.0177 N.pl3     1 <0>        -0.7882
     14 H1          0.7805    2.2098    0.7632 H         1 <0>         0.0964
     15 H2          0.3106    2.1196   -0.9411 H         1 <0>         0.0884
     16 H3          2.6492    2.8993   -0.5972 H         1 <0>         0.1097
     17 H4          3.0340    1.3289    0.1406 H         1 <0>         0.0789
     18 H5          1.7520    1.3998   -2.5926 H         1 <0>         0.1525
     19 H6          3.4981    1.7240   -2.4332 H         1 <0>         0.1285
     20 H7         -0.1190   -1.3660   -1.2855 H         1 <0>         0.1402
     21 H8          1.2132   -0.2514    0.7241 H         1 <0>         0.0907
     22 H9         -0.4808    0.1865    0.4151 H         1 <0>         0.1087
     23 H10         0.4421    1.4423   -2.1674 H         1 <0>         0.1469
     24 H11         0.7704    0.1515   -3.3481 H         1 <0>         0.0992
     25 H12        -1.5278   -0.7237   -3.0304 H         1 <0>         0.1403
     26 H13        -1.8562    0.5672   -1.8497 H         1 <0>         0.1483
     27 H14         4.8852   -0.1256   -2.2482 H         1 <0>         0.4450
     28 H15         4.3329   -1.6789   -1.9240 H         1 <0>         0.4266
     29 H16         2.1260   -1.9861   -1.4285 H         1 <0>         0.4313
@<TRIPOS>BOND
     1    1    7 1
     2    1    2 1
     3    1   14 1
     4    1   15 1
     5    2    3 1
     6    2   16 1
     7    2   17 1
     8    3    4 1
     9    3   18 1
    10    3   19 1
    11    4    5 2
    12    4   13 1
    13    5    6 1
    14    5   29 1
    15    6    7 1
    16    6    8 1
    17    6   20 1
    18    7   21 1
    19    7   22 1
    20    8    9 1
    21    8   23 1
    22    8   24 1
    23    9   10 1
    24    9   25 1
    25    9   26 1
    26   10   11 2
    27   10   12 1
    28   13   27 1
    29   13   28 1
@<TRIPOS>MOLECULE
CHEMBL41551
   55    58     0     0     0
SMALL
USER_CHARGES

@<TRIPOS>ATOM
      1 C1         -0.0178    1.4648    0.0101 C.3       1 <0>        -0.0465
      2 N1          0.0021   -0.0041    0.0020 N.4       1 <0>        -0.3887
      3 C2         -1.3761   -0.5122    0.0107 C.3       1 <0>        -0.0027
      4 C3         -1.3560   -2.0421   -0.0167 C.3       1 <0>         0.0257
      5 N2         -0.6244   -2.5407    1.1564 N.3       1 <0>        -0.5352
      6 C4          0.7499   -2.0201    1.1745 C.3       1 <0>         0.0182
      7 C5          0.7125   -0.4904    1.1921 C.3       1 <0>        -0.0014
      8 C6         -0.6316   -4.0091    1.1963 C.3       1 <0>         0.0539
      9 C7         -0.0856   -4.4853    2.5439 C.3       1 <0>         0.0547
     10 O1         -0.9701   -4.0744    3.5883 O.3       1 <0>        -0.2841
     11 C8         -0.6290   -4.4194    4.8560 C.ar      1 <0>         0.2061
     12 C9          0.5287   -5.1296    5.0909 C.ar      1 <0>        -0.2443
     13 C10         0.8944   -5.4921    6.3799 C.ar      1 <0>        -0.0177
     14 C11         0.1036   -5.1485    7.4636 C.ar      1 <0>        -0.1533
     15 C12        -1.0911   -4.4187    7.2528 C.ar      1 <0>         0.0259
     16 C13        -1.4555   -4.0470    5.9366 C.ar      1 <0>        -0.0786
     17 C14        -2.6383   -3.3188    5.7295 C.ar      1 <0>        -0.0678
     18 C15        -3.4140   -2.9756    6.7947 C.ar      1 <0>        -0.1222
     19 C16        -3.0514   -3.3365    8.0903 C.ar      1 <0>        -0.0645
     20 C17        -1.9171   -4.0532    8.3258 C.ar      1 <0>        -0.1556
     21 C18         0.5044   -5.5420    8.8327 C.ar      1 <0>         0.2466
     22 C19         0.3210   -4.6512    9.8888 C.ar      1 <0>        -0.1731
     23 C20         0.6993   -5.0300   11.1664 C.ar      1 <0>         0.0410
     24 C21         1.2495   -6.2879   11.3499 C.ar      1 <0>        -0.2007
     25 C22         1.4059   -7.1301   10.2534 C.ar      1 <0>         0.4562
     26 N3          1.0308   -6.7435    9.0449 N.ar      1 <0>        -0.5071
     27 N4          1.9577   -8.3935   10.4303 N.pl3     1 <0>        -0.8213
     28 H1          1.0047    1.8421    0.0024 H         1 <0>         0.1254
     29 H2         -0.5450    1.8259   -0.8730 H         1 <0>         0.1267
     30 H3         -0.5280    1.8163    0.9069 H         1 <0>         0.1236
     31 H4         -1.8832   -0.1716    0.9134 H         1 <0>         0.1384
     32 H5         -1.9060   -0.1400   -0.8661 H         1 <0>         0.1389
     33 H6         -2.3783   -2.4196    0.0047 H         1 <0>         0.1266
     34 H7         -0.8610   -2.3831   -0.9260 H         1 <0>         0.0639
     35 H8          1.2641   -2.3816    2.0650 H         1 <0>         0.1193
     36 H9          1.2796   -2.3607    0.2848 H         1 <0>         0.0643
     37 H10         1.7310   -0.1020    1.1912 H         1 <0>         0.1367
     38 H11         0.1947   -0.1499    2.0888 H         1 <0>         0.1374
     39 H12        -1.6519   -4.3710    1.0694 H         1 <0>         0.1058
     40 H13        -0.0057   -4.3975    0.3929 H         1 <0>         0.0764
     41 H14        -0.0076   -5.5725    2.5406 H         1 <0>         0.0844
     42 H15         0.9001   -4.0509    2.7105 H         1 <0>         0.0719
     43 H16         1.1601   -5.4082    4.2602 H         1 <0>         0.1414
     44 H17         1.8059   -6.0488    6.5395 H         1 <0>         0.1306
     45 H18        -2.9311   -3.0322    4.7302 H         1 <0>         0.1404
     46 H19        -4.3230   -2.4152    6.6328 H         1 <0>         0.1366
     47 H20        -3.6832   -3.0521    8.9188 H         1 <0>         0.1378
     48 H21        -1.6484   -4.3274    9.3352 H         1 <0>         0.1408
     49 H22        -0.1106   -3.6770    9.7131 H         1 <0>         0.1838
     50 H23         0.5682   -4.3584   12.0020 H         1 <0>         0.1789
     51 H24         1.5544   -6.6115   12.3341 H         1 <0>         0.1822
     52 H25         2.2314   -8.6837   11.3145 H         1 <0>         0.4425
     53 H26         2.0691   -8.9850    9.6696 H         1 <0>         0.4210
     54 H27         0.4748   -0.3293   -0.8280 H         1 <0>         0.4235
     55 H28         1.1459   -7.3495    8.2963 H         1 <0>         0.4373
@<TRIPOS>BOND
     1    1    2 1
     2    1   28 1
     3    1   29 1
     4    1   30 1
     5    2    7 1
     6    2    3 1
     7    2   54 1
     8    3    4 1
     9    3   31 1
    10    3   32 1
    11    4    5 1
    12    4   33 1
    13    4   34 1
    14    5    6 1
    15    5    8 1
    16    6    7 1
    17    6   35 1
    18    6   36 1
    19    7   37 1
    20    7   38 1
    21    8    9 1
    22    8   39 1
    23    8   40 1
    24    9   10 1
    25    9   41 1
    26    9   42 1
    27   10   11 1
    28   11   16 ar
    29   11   12 ar
    30   12   13 ar
    31   12   43 1
    32   13   14 ar
    33   13   44 1
    34   14   15 ar
    35   14   21 1
    36   15   20 ar
    37   15   16 ar
    38   16   17 ar
    39   17   18 ar
    40   17   45 1
    41   18   19 ar
    42   18   46 1
    43   19   20 ar
    44   19   47 1
    45   20   48 1
    46   21   26 ar
    47   21   22 ar
    48   22   23 ar
    49   22   49 1
    50   23   24 ar
    51   23   50 1
    52   24   25 ar
    53   24   51 1
    54   25   26 ar
    55   25   27 1
    56   26   55 1
    57   27   52 1
    58   27   53 1
@<TRIPOS>MOLECULE
CHEMBL41551__1
   54    57     0     0     0
SMALL
USER_CHARGES

@<TRIPOS>ATOM
      1 C1          0.5676    1.1367   -0.2556 C.3       1 <0>        -0.0458
      2 N1          0.3878   -0.3203   -0.2018 N.4       1 <0>        -0.3881
      3 C2         -1.0449   -0.6338   -0.1212 C.3       1 <0>        -0.0025
      4 C3         -1.2337   -2.1520   -0.0841 C.3       1 <0>         0.0262
      5 N2         -0.5279   -2.7022    1.0817 N.3       1 <0>        -0.5327
      6 C4          0.9039   -2.3747    1.0275 C.3       1 <0>         0.0190
      7 C5          1.0750   -0.8548    0.9812 C.3       1 <0>        -0.0018
      8 C6         -0.7325   -4.1532    1.1844 C.3       1 <0>         0.0567
      9 C7         -0.2001   -4.6493    2.5303 C.3       1 <0>         0.0579
     10 O1         -0.9760   -4.0823    3.5878 O.3       1 <0>        -0.2943
     11 C8         -0.6321   -4.4234    4.8557 C.ar      1 <0>         0.1502
     12 C9          0.4275   -5.2765    5.0783 C.ar      1 <0>        -0.2220
     13 C10         0.7943   -5.6374    6.3674 C.ar      1 <0>        -0.0550
     14 C11         0.1036   -5.1485    7.4636 C.ar      1 <0>        -0.0620
     15 C12        -0.9889   -4.2701    7.2656 C.ar      1 <0>         0.0069
     16 C13        -1.3544   -3.9012    5.9489 C.ar      1 <0>        -0.0689
     17 C14        -2.4352   -3.0258    5.7542 C.ar      1 <0>        -0.0912
     18 C15        -3.1117   -2.5400    6.8314 C.ar      1 <0>        -0.1222
     19 C16        -2.7474   -2.8988    8.1271 C.ar      1 <0>        -0.1066
     20 C17        -1.7119   -3.7550    8.3514 C.ar      1 <0>        -0.0976
     21 C18         0.5044   -5.5420    8.8327 C.ar      1 <0>         0.2165
     22 C19         1.8439   -5.4634    9.2095 C.ar      1 <0>        -0.2192
     23 C20         2.2080   -5.8338   10.4937 C.ar      1 <0>        -0.0294
     24 C21         1.2221   -6.2717   11.3626 C.ar      1 <0>        -0.2380
     25 C22        -0.0975   -6.3268   10.9243 C.ar      1 <0>         0.4079
     26 N3         -0.4169   -5.9619    9.6933 N.ar      1 <0>        -0.5349
     27 N4         -1.0917   -6.7657   11.7909 N.pl3     1 <0>        -0.8507
     28 H1          1.6307    1.3696   -0.3167 H         1 <0>         0.1242
     29 H2          0.0577    1.5335   -1.1334 H         1 <0>         0.1245
     30 H3          0.1479    1.5880    0.6434 H         1 <0>         0.1234
     31 H4         -1.4629   -0.1935    0.7840 H         1 <0>         0.1386
     32 H5         -1.5558   -0.2254   -0.9932 H         1 <0>         0.1362
     33 H6         -2.2959   -2.3846   -0.0094 H         1 <0>         0.1251
     34 H7         -0.8281   -2.5913   -0.9955 H         1 <0>         0.0608
     35 H8          1.4011   -2.7699    1.9133 H         1 <0>         0.1229
     36 H9          1.3447   -2.8177    0.1344 H         1 <0>         0.0617
     37 H10         2.1358   -0.6101    0.9266 H         1 <0>         0.1358
     38 H11         0.6462   -0.4133    1.8809 H         1 <0>         0.1387
     39 H12        -1.7969   -4.3762    1.1103 H         1 <0>         0.1028
     40 H13        -0.1993   -4.6535    0.3760 H         1 <0>         0.0707
     41 H14        -0.2705   -5.7363    2.5705 H         1 <0>         0.0786
     42 H15         0.8415   -4.3483    2.6422 H         1 <0>         0.0653
     43 H16         0.9798   -5.6698    4.2378 H         1 <0>         0.1288
     44 H17         1.6278   -6.3076    6.5173 H         1 <0>         0.1304
     45 H18        -2.7280   -2.7391    4.7550 H         1 <0>         0.1296
     46 H19        -3.9423   -1.8667    6.6791 H         1 <0>         0.1241
     47 H20        -3.2995   -2.4997    8.9652 H         1 <0>         0.1248
     48 H21        -1.4408   -4.0257    9.3612 H         1 <0>         0.1363
     49 H22         2.5893   -5.1182    8.5084 H         1 <0>         0.1318
     50 H23         3.2391   -5.7827   10.8107 H         1 <0>         0.1367
     51 H24         1.4750   -6.5676   12.3700 H         1 <0>         0.1326
     52 H25        -0.8639   -7.0313   12.6956 H         1 <0>         0.4103
     53 H26        -2.0132   -6.8062   11.4909 H         1 <0>         0.4048
     54 H27         0.7769   -0.7379   -1.0338 H         1 <0>         0.4220
@<TRIPOS>BOND
     1    1    2 1
     2    1   28 1
     3    1   29 1
     4    1   30 1
     5    2    7 1
     6    2    3 1
     7    2   54 1
     8    3    4 1
     9    3   31 1
    10    3   32 1
    11    4    5 1
    12    4   33 1
    13    4   34 1
    14    5    6 1
    15    5    8 1
    16    6    7 1
    17    6   35 1
    18    6   36 1
    19    7   37 1
    20    7   38 1
    21    8    9 1
    22    8   39 1
    23    8   40 1
    24    9   10 1
    25    9   41 1
    26    9   42 1
    27   10   11 1
    28   11   16 ar
    29   11   12 ar
    30   12   13 ar
    31   12   43 1
    32   13   14 ar
    33   13   44 1
    34   14   15 ar
    35   14   21 1
    36   15   20 ar
    37   15   16 ar
    38   16   17 ar
    39   17   18 ar
    40   17   45 1
    41   18   19 ar
    42   18   46 1
    43   19   20 ar
    44   19   47 1
    45   20   48 1
    46   21   26 ar
    47   21   22 ar
    48   22   23 ar
    49   22   49 1
    50   23   24 ar
    51   23   50 1
    52   24   25 ar
    53   24   51 1
    54   25   26 ar
    55   25   27 1
    56   27   52 1
    57   27   53 1
@<TRIPOS>MOLECULE
CHEMBL491922
   51    54     0     0     0
SMALL
USER_CHARGES

@<TRIPOS>ATOM
      1 C1         -0.1015   -0.0987   -0.5349 C.3       1 <0>        -0.1388
      2 C2         -0.4052   -1.1288    0.5223 C.2       1 <0>        -0.0492
      3 C3         -1.6231   -1.1778    1.0277 C.2       1 <0>        -0.1787
      4 C4         -2.0291   -2.1593    2.0893 C.3       1 <0>         0.0972
      5 N1         -1.0569   -3.2570    2.1649 N.3       1 <0>        -0.6739
      6 C5          0.3091   -2.7215    2.2850 C.3       1 <0>         0.0523
      7 C6          0.6898   -2.0638    0.9547 C.3       1 <0>        -0.0839
      8 C7         -2.6287   -0.2275    0.5290 C.2       1 <0>         0.5729
      9 O1         -2.4846    0.9653    0.7180 O.2       1 <0>        -0.5097
     10 N2         -3.7098   -0.6784   -0.1375 N.am      1 <0>        -0.5463
     11 C8         -4.6350    0.2713   -0.7606 C.3       1 <0>         0.1351
     12 C9         -4.3164    0.3935   -2.2285 C.2       1 <0>        -0.0115
     13 C10        -4.9231   -0.4090   -3.1384 C.2       1 <0>        -0.1786
     14 C11        -4.6176   -0.2864   -4.5101 C.2       1 <0>         0.5396
     15 O2         -5.1749   -1.0175   -5.3106 O.2       1 <0>        -0.5212
     16 N3         -3.7275    0.6169   -4.9568 N.am      1 <0>        -0.6255
     17 H1         -3.5410    0.6750   -5.9069 H         1 <0>         0.4218
     18 C12        -3.0761    1.4628   -4.0828 C.ar      1 <0>         0.1852
     19 C13        -3.3503    1.3846   -2.7039 C.ar      1 <0>        -0.1110
     20 C14        -2.6971    2.2432   -1.8128 C.ar      1 <0>        -0.0393
     21 C15        -1.8002    3.1576   -2.2861 C.ar      1 <0>        -0.1546
     22 C16        -1.5296    3.2441   -3.6472 C.ar      1 <0>         0.1291
     23 C17        -2.1544    2.3976   -4.5444 C.ar      1 <0>         0.0147
     24 F1         -1.8843    2.4894   -5.8650 F         1 <0>        -0.1204
     25 F2         -0.6396    4.1561   -4.0960 F         1 <0>        -0.1160
     26 C18        -3.9485   -2.0528   -0.2342 C.ar      1 <0>         0.1457
     27 C19        -5.2515   -2.5298   -0.3036 C.ar      1 <0>        -0.1453
     28 C20        -5.4845   -3.8875   -0.3995 C.ar      1 <0>        -0.0827
     29 C21        -4.4226   -4.7729   -0.4263 C.ar      1 <0>        -0.1263
     30 C22        -3.1233   -4.3017   -0.3574 C.ar      1 <0>        -0.0002
     31 C23        -2.8836   -2.9432   -0.2670 C.ar      1 <0>        -0.1319
     32 Cl1        -1.7933   -5.4169   -0.3907 Cl        1 <0>        -0.0523
     33 H2          0.9383   -0.1944   -0.8474 H         1 <0>         0.0717
     34 H3         -0.7548   -0.2555   -1.3933 H         1 <0>         0.0646
     35 H4         -0.2685    0.8989   -0.1287 H         1 <0>         0.0869
     36 H5         -2.0752   -1.6509    3.0524 H         1 <0>         0.0454
     37 H6         -3.0125   -2.5639    1.8499 H         1 <0>         0.0920
     38 H7         -1.2708   -3.8774    2.9314 H         1 <0>         0.3516
     39 H8          0.3435   -1.9826    3.0856 H         1 <0>         0.0392
     40 H9          1.0028   -3.5336    2.5026 H         1 <0>         0.0840
     41 H10         0.8323   -2.8317    0.1943 H         1 <0>         0.0930
     42 H11         1.6161   -1.5034    1.0812 H         1 <0>         0.0856
     43 H12        -5.6579   -0.0850   -0.6392 H         1 <0>         0.1100
     44 H13        -4.5308    1.2460   -0.2838 H         1 <0>         0.1199
     45 H14        -5.6426   -1.1450   -2.8113 H         1 <0>         0.1612
     46 H15        -2.9020    2.1831   -0.7541 H         1 <0>         0.1743
     47 H16        -1.2968    3.8197   -1.5972 H         1 <0>         0.1557
     48 H17        -6.0816   -1.8392   -0.2821 H         1 <0>         0.1328
     49 H18        -6.4974   -4.2583   -0.4534 H         1 <0>         0.1379
     50 H19        -4.6077   -5.8343   -0.5007 H         1 <0>         0.1349
     51 H20        -1.8694   -2.5752   -0.2174 H         1 <0>         0.1631
@<TRIPOS>BOND
     1    1    2 1
     2    1   33 1
     3    1   34 1
     4    1   35 1
     5    2    7 1
     6    2    3 2
     7    3    4 1
     8    3    8 1
     9    4    5 1
    10    4   36 1
    11    4   37 1
    12    5    6 1
    13    5   38 1
    14    6    7 1
    15    6   39 1
    16    6   40 1
    17    7   41 1
    18    7   42 1
    19    8    9 2
    20    8   10 am
    21   10   11 1
    22   10   26 1
    23   11   12 1
    24   11   43 1
    25   11   44 1
    26   12   19 1
    27   12   13 2
    28   13   14 1
    29   13   45 1
    30   14   15 2
    31   14   16 am
    32   16   17 1
    33   16   18 1
    34   18   23 ar
    35   18   19 ar
    36   19   20 ar
    37   20   21 ar
    38   20   46 1
    39   21   22 ar
    40   21   47 1
    41   22   23 ar
    42   22   25 1
    43   23   24 1
    44   26   31 ar
    45   26   27 ar
    46   27   28 ar
    47   27   48 1
    48   28   29 ar
    49   28   49 1
    50   29   30 ar
    51   29   50 1
    52   30   31 ar
    53   30   32 1
    54   31   51 1
@<TRIPOS>MOLECULE
CHEMBL491922__1
   52    55     0     0     0
SMALL
USER_CHARGES

@<TRIPOS>ATOM
      1 C1         -0.0856   -0.0826   -0.4869 C.3       1 <0>        -0.1491
      2 C2         -0.4023   -1.1209    0.5585 C.2       1 <0>        -0.0282
      3 C3         -1.6285   -1.1826    1.0442 C.2       1 <0>        -0.2184
      4 C4         -2.0416   -2.1764    2.0912 C.3       1 <0>         0.0379
      5 N1         -1.0777   -3.2810    2.1568 N.4       1 <0>        -0.5109
      6 C5          0.2754   -2.7270    2.3215 C.3       1 <0>        -0.0105
      7 C6          0.6879   -2.0547    1.0077 C.3       1 <0>        -0.1243
      8 C7         -2.6336   -0.2360    0.5378 C.2       1 <0>         0.5724
      9 O1         -2.4949    0.9574    0.7270 O.2       1 <0>        -0.4789
     10 N2         -3.7086   -0.6910   -0.1360 N.am      1 <0>        -0.5430
     11 C8         -4.6326    0.2553   -0.7661 C.3       1 <0>         0.1350
     12 C9         -4.3042    0.3776   -2.2318 C.2       1 <0>        -0.0206
     13 C10        -4.9020   -0.4273   -3.1454 C.2       1 <0>        -0.1710
     14 C11        -4.5875   -0.3045   -4.5150 C.2       1 <0>         0.5361
     15 O2         -5.1369   -1.0378   -5.3189 O.2       1 <0>        -0.5139
     16 N3         -3.6972    0.6015   -4.9561 N.am      1 <0>        -0.6245
     17 H1         -3.5043    0.6596   -5.9049 H         1 <0>         0.4248
     18 C12        -3.0544    1.4499   -4.0781 C.ar      1 <0>         0.1873
     19 C13        -3.3380    1.3715   -2.7011 C.ar      1 <0>        -0.1157
     20 C14        -2.6937    2.2327   -1.8060 C.ar      1 <0>        -0.0458
     21 C15        -1.7964    3.1496   -2.2736 C.ar      1 <0>        -0.1535
     22 C16        -1.5167    3.2363   -3.6329 C.ar      1 <0>         0.1330
     23 C17        -2.1326    2.3873   -4.5339 C.ar      1 <0>         0.0186
     24 F1         -1.8537    2.4792   -5.8526 F         1 <0>        -0.1163
     25 F2         -0.6265    4.1508   -4.0760 F         1 <0>        -0.1116
     26 C18        -3.9419   -2.0662   -0.2337 C.ar      1 <0>         0.1623
     27 C19        -5.2430   -2.5483   -0.3032 C.ar      1 <0>        -0.1293
     28 C20        -5.4707   -3.9068   -0.4000 C.ar      1 <0>        -0.0599
     29 C21        -4.4053   -4.7881   -0.4276 C.ar      1 <0>        -0.1078
     30 C22        -3.1079   -4.3118   -0.3586 C.ar      1 <0>        -0.0355
     31 C23        -2.8734   -2.9524   -0.2672 C.ar      1 <0>        -0.1918
     32 Cl1        -1.7735   -5.4217   -0.3929 Cl        1 <0>        -0.0549
     33 H2          0.9602   -0.1706   -0.7812 H         1 <0>         0.0867
     34 H3         -0.7224   -0.2378   -1.3578 H         1 <0>         0.0817
     35 H4         -0.2654    0.9115   -0.0777 H         1 <0>         0.1052
     36 H5         -2.0881   -1.6804    3.0607 H         1 <0>         0.1533
     37 H6         -3.0269   -2.5719    1.8441 H         1 <0>         0.1449
     38 H7         -1.2974   -3.8747    2.9425 H         1 <0>         0.4401
     39 H8          0.2749   -1.9936    3.1278 H         1 <0>         0.1451
     40 H9          0.9739   -3.5307    2.5550 H         1 <0>         0.1481
     41 H10         0.8533   -2.8140    0.2434 H         1 <0>         0.1180
     42 H11         1.6075   -1.4907    1.1637 H         1 <0>         0.1421
     43 H12        -5.6551   -0.1045   -0.6516 H         1 <0>         0.1161
     44 H13        -4.5350    1.2306   -0.2892 H         1 <0>         0.1272
     45 H14        -5.6215   -1.1653   -2.8229 H         1 <0>         0.1604
     46 H15        -2.9057    2.1725   -0.7487 H         1 <0>         0.1705
     47 H16        -1.2998    3.8137   -1.5816 H         1 <0>         0.1573
     48 H17        -6.0758   -1.8610   -0.2810 H         1 <0>         0.1475
     49 H18        -6.4821   -4.2816   -0.4541 H         1 <0>         0.1531
     50 H19        -4.5863   -5.8501   -0.5027 H         1 <0>         0.1489
     51 H20        -1.8607   -2.5805   -0.2176 H         1 <0>         0.1448
     52 H21        -1.1211   -3.8181    1.3037 H         1 <0>         0.4172
@<TRIPOS>BOND
     1    1    2 1
     2    1   33 1
     3    1   34 1
     4    1   35 1
     5    2    7 1
     6    2    3 2
     7    3    4 1
     8    3    8 1
     9    4    5 1
    10    4   36 1
    11    4   37 1
    12    5    6 1
    13    5   38 1
    14    5   52 1
    15    6    7 1
    16    6   39 1
    17    6   40 1
    18    7   41 1
    19    7   42 1
    20    8    9 2
    21    8   10 am
    22   10   11 1
    23   10   26 1
    24   11   12 1
    25   11   43 1
    26   11   44 1
    27   12   19 1
    28   12   13 2
    29   13   14 1
    30   13   45 1
    31   14   15 2
    32   14   16 am
    33   16   17 1
    34   16   18 1
    35   18   23 ar
    36   18   19 ar
    37   19   20 ar
    38   20   21 ar
    39   20   46 1
    40   21   22 ar
    41   21   47 1
    42   22   23 ar
    43   22   25 1
    44   23   24 1
    45   26   31 ar
    46   26   27 ar
    47   27   28 ar
    48   27   48 1
    49   28   29 ar
    50   28   49 1
    51   29   30 ar
    52   29   50 1
    53   30   31 ar
    54   30   32 1
    55   31   51 1
@<TRIPOS>MOLECULE
CHEMBL491923
   45    48     0     0     0
SMALL
USER_CHARGES

@<TRIPOS>ATOM
      1 C1          0.6573   -0.4319    5.4791 C.3       1 <0>        -0.0573
      2 N1         -0.2000   -1.4031    4.7950 N.pl3     1 <0>        -0.4619
      3 C2         -0.7706   -2.4912    5.3425 C.2       1 <0>         0.2236
      4 N2         -1.4651   -3.1183    4.4278 N.2       1 <0>        -0.4713
      5 C3         -1.3712   -2.4677    3.2680 C.2       1 <0>         0.1029
      6 C4         -0.5799   -1.3712    3.4672 C.2       1 <0>        -0.1121
      7 C5         -0.2058   -0.3630    2.4690 C.2       1 <0>         0.6035
      8 O1          0.0354   -0.6999    1.3247 O.2       1 <0>        -0.4597
      9 N3         -0.1292    0.9362    2.8193 N.am      1 <0>        -0.5531
     10 C6          0.1855    1.3047    4.2018 C.3       1 <0>         0.0641
     11 C7          1.6811    1.3480    4.3821 C.2       1 <0>        -0.0366
     12 C8          2.3523    2.5253    4.3246 C.2       1 <0>        -0.1553
     13 C9          3.7523    2.5547    4.4947 C.2       1 <0>         0.5379
     14 O2          4.3353    3.6238    4.4396 O.2       1 <0>        -0.5129
     15 N4          4.4598    1.4330    4.7165 N.am      1 <0>        -0.6225
     16 H1          5.4216    1.4889    4.8295 H         1 <0>         0.4240
     17 C10         3.8370    0.2038    4.7863 C.ar      1 <0>         0.2300
     18 C11         2.4401    0.1214    4.6291 C.ar      1 <0>        -0.2285
     19 C12         1.8017   -1.1214    4.7042 C.ar      1 <0>        -0.2059
     20 C13         2.5367   -2.2488    4.9354 C.ar      1 <0>        -0.2381
     21 C14         3.9156   -2.1734    5.0976 C.ar      1 <0>         0.1755
     22 C15         4.5687   -0.9574    5.0154 C.ar      1 <0>        -0.0402
     23 F1          5.9089   -0.8949    5.1741 F         1 <0>        -0.1239
     24 F2          4.6251   -3.3000    5.3265 F         1 <0>        -0.1149
     25 C16        -0.3501    1.9324    1.8631 C.ar      1 <0>         0.1697
     26 C17        -0.1609    3.2684    2.1935 C.ar      1 <0>        -0.1584
     27 C18        -0.3798    4.2503    1.2475 C.ar      1 <0>        -0.0734
     28 C19        -0.7876    3.9053   -0.0281 C.ar      1 <0>        -0.1316
     29 C20        -0.9776    2.5756   -0.3609 C.ar      1 <0>        -0.0037
     30 C21        -0.7537    1.5878    0.5800 C.ar      1 <0>        -0.1437
     31 Cl1        -1.4902    2.1472   -1.9632 Cl        1 <0>        -0.0576
     32 H2          0.0410    0.2371    6.0797 H         1 <0>         0.1107
     33 H3          1.3586   -0.9587    6.1262 H         1 <0>         0.1482
     34 H4          1.2101    0.1485    4.7405 H         1 <0>         0.2355
     35 H5         -0.6711   -2.7985    6.3731 H         1 <0>         0.2301
     36 H6         -1.8400   -2.7538    2.3380 H         1 <0>         0.1988
     37 H7         -0.2354    2.2860    4.4211 H         1 <0>         0.1264
     38 H8         -0.2411    0.5664    4.8807 H         1 <0>         0.1548
     39 H9          1.8126    3.4439    4.1475 H         1 <0>         0.1688
     40 H10         0.7310   -1.1888    4.5800 H         1 <0>         0.3358
     41 H11         2.0426   -3.2074    4.9930 H         1 <0>         0.1489
     42 H12         0.1569    3.5390    3.1896 H         1 <0>         0.1323
     43 H13        -0.2326    5.2890    1.5042 H         1 <0>         0.1411
     44 H14        -0.9584    4.6753   -0.7659 H         1 <0>         0.1376
     45 H15        -0.8970    0.5497    0.3188 H         1 <0>         0.1624
@<TRIPOS>BOND
     1    1    2 1
     2    1   32 1
     3    1   33 1
     4    1   34 1
     5    2    6 1
     6    2    3 1
     7    3    4 2
     8    3   35 1
     9    4    5 1
    10    5    6 2
    11    5   36 1
    12    6    7 1
    13    7    8 2
    14    7    9 am
    15    9   10 1
    16    9   25 1
    17   10   11 1
    18   10   37 1
    19   10   38 1
    20   11   18 1
    21   11   12 2
    22   12   13 1
    23   12   39 1
    24   13   14 2
    25   13   15 am
    26   15   16 1
    27   15   17 1
    28   17   22 ar
    29   17   18 ar
    30   18   19 ar
    31   19   20 ar
    32   19   40 1
    33   20   21 ar
    34   20   41 1
    35   21   22 ar
    36   21   24 1
    37   22   23 1
    38   25   30 ar
    39   25   26 ar
    40   26   27 ar
    41   26   42 1
    42   27   28 ar
    43   27   43 1
    44   28   29 ar
    45   28   44 1
    46   29   30 ar
    47   29   31 1
    48   30   45 1
@<TRIPOS>MOLECULE
CHEMBL8106
   29    31     0     0     0
SMALL
USER_CHARGES

@<TRIPOS>ATOM
      1 C1         -0.0167    1.3781    0.0096 C.ar      1 <0>        -0.0989
      2 C2          1.1709    2.0855    0.0021 C.ar      1 <0>        -0.1084
      3 C3          2.3773    1.4107   -0.0130 C.ar      1 <0>        -0.0958
      4 C4          2.3960    0.0285   -0.0201 C.ar      1 <0>        -0.1338
      5 C5          1.2084   -0.6789   -0.0117 C.ar      1 <0>        -0.1145
      6 C6          0.0021   -0.0041    0.0020 C.ar      1 <0>        -0.1123
      7 C7          3.7112   -0.7071   -0.0376 C.3       1 <0>         0.1774
      8 C8          4.0515   -1.0620   -1.4831 C.3       1 <0>        -0.0833
      9 C9          3.1637   -2.2153   -1.9222 C.2       1 <0>         0.0158
     10 C10         2.7003   -2.4971   -3.1870 C.2       1 <0>        -0.1854
     11 C11         1.9161   -3.5873   -3.3840 C.2       1 <0>        -0.1695
     12 S1          1.7753   -4.2783   -1.8544 S.3       1 <0>         0.3397
     13 C12         2.7474   -3.1225   -0.9495 C.2       1 <0>        -0.3622
     14 C13         3.1021   -3.0100    0.4564 C.cat     1 <0>         0.6408
     15 N1          3.6097   -1.8606    0.8447 N.pl3     1 <0>        -0.6177
     16 N2          2.9162   -4.0557    1.3376 N.pl3     1 <0>        -0.7884
     17 H1         -0.9591    1.9053    0.0259 H         1 <0>         0.1320
     18 H2          1.1563    3.1654    0.0076 H         1 <0>         0.1343
     19 H3          3.3051    1.9634   -0.0196 H         1 <0>         0.1326
     20 H4          1.2231   -1.7588   -0.0176 H         1 <0>         0.1121
     21 H5         -0.9258   -0.5567    0.0082 H         1 <0>         0.1284
     22 H6          4.4852   -0.0427    0.3466 H         1 <0>         0.1411
     23 H7          3.8727   -0.1984   -2.1236 H         1 <0>         0.1275
     24 H8          5.0979   -1.3598   -1.5501 H         1 <0>         0.1150
     25 H9          2.9585   -1.8556   -4.0166 H         1 <0>         0.1567
     26 H10         1.4817   -3.9330   -4.3103 H         1 <0>         0.2103
     27 H11         2.5400   -4.8930    1.0242 H         1 <0>         0.4415
     28 H12         3.1617   -3.9534    2.2704 H         1 <0>         0.4327
     29 H13         3.9295   -1.7780    1.7567 H         1 <0>         0.4322
@<TRIPOS>BOND
     1    1    6 ar
     2    1    2 ar
     3    1   17 1
     4    2    3 ar
     5    2   18 1
     6    3    4 ar
     7    3   19 1
     8    4    5 ar
     9    4    7 1
    10    5    6 ar
    11    5   20 1
    12    6   21 1
    13    7   15 1
    14    7    8 1
    15    7   22 1
    16    8    9 1
    17    8   23 1
    18    8   24 1
    19    9   13 2
    20    9   10 1
    21   10   11 2
    22   10   25 1
    23   11   12 1
    24   11   26 1
    25   12   13 1
    26   13   14 1
    27   14   15 2
    28   14   16 1
    29   15   29 1
    30   16   27 1
    31   16   28 1
@<TRIPOS>MOLECULE
CHEMBL8106__1
   29    31     0     0     0
SMALL
USER_CHARGES

@<TRIPOS>ATOM
      1 C1         -0.0167    1.3781    0.0096 C.ar      1 <0>        -0.0957
      2 C2          1.1709    2.0855    0.0021 C.ar      1 <0>        -0.1080
      3 C3          2.3773    1.4107   -0.0130 C.ar      1 <0>        -0.0921
      4 C4          2.3960    0.0285   -0.0201 C.ar      1 <0>        -0.1320
      5 C5          1.2084   -0.6789   -0.0117 C.ar      1 <0>        -0.1142
      6 C6          0.0021   -0.0041    0.0020 C.ar      1 <0>        -0.1101
      7 C7          3.7112   -0.7071   -0.0376 C.3       1 <0>         0.1804
      8 C8          4.0817   -1.0764    1.3969 C.3       1 <0>        -0.0815
      9 C9          5.2302   -2.0716    1.3613 C.2       1 <0>         0.0067
     10 C10         6.2283   -2.2512    2.2917 C.2       1 <0>        -0.1868
     11 C11         7.1712   -3.2052    2.0846 C.2       1 <0>        -0.1712
     12 S1          6.7400   -3.9017    0.6129 S.3       1 <0>         0.3460
     13 C12         5.3156   -2.9273    0.2643 C.2       1 <0>        -0.3588
     14 C13         4.3785   -2.9018   -0.8474 C.cat     1 <0>         0.6406
     15 N1          3.5911   -1.8518   -0.9290 N.pl3     1 <0>        -0.6193
     16 N2          4.3183   -3.9272   -1.7693 N.pl3     1 <0>        -0.7888
     17 H1         -0.9591    1.9053    0.0259 H         1 <0>         0.1337
     18 H2          1.1563    3.1654    0.0076 H         1 <0>         0.1355
     19 H3          3.3051    1.9634   -0.0196 H         1 <0>         0.1326
     20 H4          1.2231   -1.7588   -0.0176 H         1 <0>         0.1194
     21 H5         -0.9258   -0.5567    0.0082 H         1 <0>         0.1323
     22 H6          4.4770   -0.0388   -0.4312 H         1 <0>         0.1199
     23 H7          4.3899   -0.1812    1.9371 H         1 <0>         0.1277
     24 H8          3.2219   -1.5276    1.8922 H         1 <0>         0.1117
     25 H9          6.2611   -1.6373    3.1797 H         1 <0>         0.1576
     26 H10         8.0072   -3.4599    2.7191 H         1 <0>         0.2108
     27 H11         4.9108   -4.6905   -1.6850 H         1 <0>         0.4415
     28 H12         3.6834   -3.8845   -2.5014 H         1 <0>         0.4321
     29 H13         2.9018   -1.8393   -1.6114 H         1 <0>         0.4301
@<TRIPOS>BOND
     1    1    6 ar
     2    1    2 ar
     3    1   17 1
     4    2    3 ar
     5    2   18 1
     6    3    4 ar
     7    3   19 1
     8    4    5 ar
     9    4    7 1
    10    5    6 ar
    11    5   20 1
    12    6   21 1
    13    7   15 1
    14    7    8 1
    15    7   22 1
    16    8    9 1
    17    8   23 1
    18    8   24 1
    19    9   13 2
    20    9   10 1
    21   10   11 2
    22   10   25 1
    23   11   12 1
    24   11   26 1
    25   12   13 1
    26   13   14 1
    27   14   15 2
    28   14   16 1
    29   15   29 1
    30   16   27 1
    31   16   28 1
@<TRIPOS>MOLECULE
CHEMBL489724
   44    47     0     0     0
SMALL
USER_CHARGES

@<TRIPOS>ATOM
      1 C1          0.0309    1.7470   -0.7568 C.3       1 <0>        -0.0941
      2 C2         -0.7248    1.8927   -2.0524 C.2       1 <0>         0.1525
      3 C3         -1.0068    0.8071   -2.8524 C.2       1 <0>        -0.3030
      4 S1         -1.8872    1.6045   -4.1860 S.3       1 <0>         0.1677
      5 C4         -1.8068    3.1822   -3.6053 C.2       1 <0>         0.0578
      6 N1         -1.1522    3.0572   -2.4732 N.2       1 <0>        -0.5126
      7 C5         -0.6759   -0.6088   -2.6621 C.2       1 <0>         0.6161
      8 O1         -0.9592   -1.1648   -1.6174 O.2       1 <0>        -0.4774
      9 N2         -0.0579   -1.2943   -3.6443 N.am      1 <0>        -0.5436
     10 C6          0.4018   -0.5962   -4.8475 C.3       1 <0>         0.1301
     11 C7          1.9012   -0.4515   -4.8023 C.2       1 <0>        -0.0188
     12 C8          2.7046   -1.3792   -5.3803 C.2       1 <0>        -0.1682
     13 C9          4.1069   -1.2343   -5.3322 C.2       1 <0>         0.5396
     14 O2          4.8100   -2.0796   -5.8586 O.2       1 <0>        -0.5161
     15 N3          4.6875   -0.1869   -4.7208 N.am      1 <0>        -0.6242
     16 H1          5.6549   -0.1177   -4.7065 H         1 <0>         0.4234
     17 C10         3.9266    0.7911   -4.1139 C.ar      1 <0>         0.1869
     18 C11         2.5220    0.6959   -4.1393 C.ar      1 <0>        -0.1027
     19 C12         1.7444    1.6871   -3.5304 C.ar      1 <0>        -0.0611
     20 C13         2.3523    2.7460   -2.9189 C.ar      1 <0>        -0.1484
     21 C14         3.7387    2.8490   -2.8958 C.ar      1 <0>         0.1308
     22 C15         4.5269    1.8750   -3.4806 C.ar      1 <0>         0.0236
     23 F1          5.8732    1.9842   -3.4524 F         1 <0>        -0.1172
     24 F2          4.3213    3.9048   -2.2866 F         1 <0>        -0.1128
     25 C16         0.1445   -2.6719   -3.5150 C.ar      1 <0>         0.1567
     26 C17         0.2034   -3.4760   -4.6463 C.ar      1 <0>        -0.1435
     27 C18         0.4039   -4.8360   -4.5159 C.ar      1 <0>        -0.0815
     28 C19         0.5455   -5.3986   -3.2606 C.ar      1 <0>        -0.1215
     29 C20         0.4874   -4.6010   -2.1313 C.ar      1 <0>        -0.0136
     30 C21         0.2927   -3.2380   -2.2558 C.ar      1 <0>        -0.1206
     31 Cl1         0.6651   -5.3117   -0.5574 Cl        1 <0>        -0.0596
     32 H2         -0.6728    1.5680    0.0562 H         1 <0>         0.0933
     33 H3          0.7212    0.9067   -0.8313 H         1 <0>         0.0782
     34 H4          0.5909    2.6608   -0.5581 H         1 <0>         0.0859
     35 H5         -2.2020    4.0815   -4.0542 H         1 <0>         0.2322
     36 H6          0.1184   -1.1690   -5.7305 H         1 <0>         0.1163
     37 H7         -0.0573    0.3914   -4.8923 H         1 <0>         0.1074
     38 H8          2.2688   -2.2323   -5.8789 H         1 <0>         0.1644
     39 H9          0.6669    1.6151   -3.5443 H         1 <0>         0.1482
     40 H10         1.7509    3.5103   -2.4493 H         1 <0>         0.1569
     41 H11         0.0922   -3.0377   -5.6271 H         1 <0>         0.1341
     42 H12         0.4497   -5.4612   -5.3954 H         1 <0>         0.1411
     43 H13         0.7014   -6.4627   -3.1615 H         1 <0>         0.1373
     44 H14         0.2517   -2.6150   -1.3746 H         1 <0>         0.1602
@<TRIPOS>BOND
     1    1    2 1
     2    1   32 1
     3    1   33 1
     4    1   34 1
     5    2    6 1
     6    2    3 2
     7    3    4 1
     8    3    7 1
     9    4    5 1
    10    5    6 2
    11    5   35 1
    12    7    8 2
    13    7    9 am
    14    9   10 1
    15    9   25 1
    16   10   11 1
    17   10   36 1
    18   10   37 1
    19   11   18 1
    20   11   12 2
    21   12   13 1
    22   12   38 1
    23   13   14 2
    24   13   15 am
    25   15   16 1
    26   15   17 1
    27   17   22 ar
    28   17   18 ar
    29   18   19 ar
    30   19   20 ar
    31   19   39 1
    32   20   21 ar
    33   20   40 1
    34   21   22 ar
    35   21   24 1
    36   22   23 1
    37   25   30 ar
    38   25   26 ar
    39   26   27 ar
    40   26   41 1
    41   27   28 ar
    42   27   42 1
    43   28   29 ar
    44   28   43 1
    45   29   30 ar
    46   29   31 1
    47   30   44 1
@<TRIPOS>MOLECULE
CHEMBL216102
   60    61     0     0     0
SMALL
USER_CHARGES

@<TRIPOS>ATOM
      1 C1         -0.0207    1.3729    0.0519 C.ar      1 <0>        -0.0775
      2 C2          1.1665    2.0810    0.0415 C.ar      1 <0>        -0.1144
      3 C3          2.3732    1.4070    0.0211 C.ar      1 <0>        -0.0979
      4 C4          2.3927    0.0248    0.0117 C.ar      1 <0>        -0.1699
      5 C5          1.2056   -0.6833    0.0230 C.ar      1 <0>        -0.0873
      6 C6         -0.0011   -0.0093    0.0420 C.ar      1 <0>        -0.1090
      7 C7          3.7083   -0.7100   -0.0115 C.3       1 <0>         0.0474
      8 N1          4.1550   -0.9580    1.3658 N.4       1 <0>        -0.3766
      9 C8          4.4601    0.3277    2.0289 C.3       1 <0>        -0.0150
     10 C9          5.6783    0.0252    2.9368 C.3       1 <0>         0.1282
     11 H1          5.3635   -0.4430    3.8694 H         1 <0>         0.1378
     12 C10         6.4835   -0.9693    2.0597 C.3       1 <0>        -0.1475
     13 C11         5.3788   -1.7801    1.3500 C.3       1 <0>        -0.0025
     14 H2          5.6734   -1.9868    0.3211 H         1 <0>         0.1775
     15 C12         5.1378   -3.0724    2.0869 C.2       1 <0>         0.5119
     16 O1          4.0529   -3.2954    2.5812 O.2       1 <0>        -0.5169
     17 N2          6.1278   -3.9803    2.1967 N.am      1 <0>        -0.8196
     18 N3          6.4525    1.2411    3.1985 N.am      1 <0>        -0.6989
     19 C13         7.2097    1.3317    4.3097 C.2       1 <0>         0.5127
     20 O2          7.2502    0.4067    5.0931 O.2       1 <0>        -0.4980
     21 C14         8.0061    2.5825    4.5789 C.3       1 <0>         0.0135
     22 H3          7.4148    3.4559    4.3041 H         1 <0>         0.1743
     23 C15         9.2923    2.5562    3.7508 C.3       1 <0>        -0.1395
     24 C16        10.0399    3.8793    3.9277 C.3       1 <0>        -0.1516
     25 C17        11.3262    3.8531    3.0996 C.3       1 <0>         0.1024
     26 N4         12.0420    5.1200    3.2690 N.pl3     1 <0>        -0.7347
     27 C18        13.2113    5.3248    2.6287 C.2       1 <0>         0.7137
     28 N5         13.7742    4.3269    1.9168 N.pl3     1 <0>        -0.7913
     29 N6         13.8168    6.5257    2.7000 N.2       1 <0>        -0.4869
     30 N7         13.3301    7.4495    3.4574 N.pl3     1 <0>         0.1888
     31 O3         13.7889    7.6069    4.6818 O.2       1 <0>        -0.2264
     32 O4         12.3742    8.2352    3.0063 O.3       1 <0>        -0.2458
     33 N8          8.3444    2.6497    6.0069 N.4       1 <0>        -0.6252
     34 H4         -0.9634    1.8995    0.0724 H         1 <0>         0.1392
     35 H5          1.1512    3.1609    0.0489 H         1 <0>         0.1372
     36 H6          3.3007    1.9603    0.0123 H         1 <0>         0.1263
     37 H7          1.2209   -1.7632    0.0153 H         1 <0>         0.1336
     38 H8         -0.9286   -0.5625    0.0505 H         1 <0>         0.1400
     39 H9          3.5843   -1.6607   -0.5300 H         1 <0>         0.1419
     40 H10         4.4523   -0.1067   -0.5318 H         1 <0>         0.1399
     41 H11         4.7174    1.0850    1.2884 H         1 <0>         0.1436
     42 H12         3.6115    0.6558    2.6293 H         1 <0>         0.1512
     43 H13         7.0957   -0.4344    1.3336 H         1 <0>         0.1231
     44 H14         7.0999   -1.6192    2.6808 H         1 <0>         0.1247
     45 H15         6.9954   -3.8020    1.8014 H         1 <0>         0.4135
     46 H16         5.9726   -4.8121    2.6710 H         1 <0>         0.4291
     47 H17         6.4201    1.9809    2.5720 H         1 <0>         0.4201
     48 H18         9.9242    1.7341    4.0869 H         1 <0>         0.1093
     49 H19         9.0442    2.4170    2.6986 H         1 <0>         0.1244
     50 H20         9.4081    4.7014    3.5916 H         1 <0>         0.1025
     51 H21        10.2881    4.0185    4.9799 H         1 <0>         0.0806
     52 H22        11.9580    3.0309    3.4357 H         1 <0>         0.0869
     53 H23        11.0780    3.7138    2.0474 H         1 <0>         0.0904
     54 H24        13.3380    3.4620    1.8654 H         1 <0>         0.4225
     55 H25        14.6151    4.4742    1.4563 H         1 <0>         0.4414
     56 H26         8.8776    3.4871    6.1871 H         1 <0>         0.4470
     57 H27         7.4961    2.6670    6.5530 H         1 <0>         0.4462
     58 H28        11.6751    5.8115    3.8418 H         1 <0>         0.4257
     59 H29         8.8917    1.8412    6.2613 H         1 <0>         0.4455
     60 H30         3.4299   -1.4381    1.8775 H         1 <0>         0.4384
@<TRIPOS>BOND
     1    1    6 ar
     2    1    2 ar
     3    1   34 1
     4    2    3 ar
     5    2   35 1
     6    3    4 ar
     7    3   36 1
     8    4    5 ar
     9    4    7 1
    10    5    6 ar
    11    5   37 1
    12    6   38 1
    13    7    8 1
    14    7   39 1
    15    7   40 1
    16    8   13 1
    17    8    9 1
    18    8   60 1
    19    9   10 1
    20    9   41 1
    21    9   42 1
    22   10   11 1
    23   10   12 1
    24   10   18 1
    25   12   13 1
    26   12   43 1
    27   12   44 1
    28   13   14 1
    29   13   15 1
    30   15   16 2
    31   15   17 am
    32   17   45 1
    33   17   46 1
    34   18   19 am
    35   18   47 1
    36   19   20 2
    37   19   21 1
    38   21   22 1
    39   21   23 1
    40   21   33 1
    41   23   24 1
    42   23   48 1
    43   23   49 1
    44   24   25 1
    45   24   50 1
    46   24   51 1
    47   25   26 1
    48   25   52 1
    49   25   53 1
    50   26   27 1
    51   26   58 1
    52   27   28 1
    53   27   29 2
    54   28   54 1
    55   28   55 1
    56   29   30 1
    57   30   31 2
    58   30   32 1
    59   33   56 1
    60   33   57 1
    61   33   59 1
@<TRIPOS>MOLECULE
CHEMBL216102__1
   59    60     0     0     0
SMALL
USER_CHARGES

@<TRIPOS>ATOM
      1 C1         -0.0400    1.3917    0.0466 C.ar      1 <0>        -0.1141
      2 C2          1.1474    2.0995    0.0369 C.ar      1 <0>        -0.1234
      3 C3          2.3539    1.4251    0.0165 C.ar      1 <0>        -0.1162
      4 C4          2.3730    0.0429    0.0062 C.ar      1 <0>        -0.0851
      5 C5          1.1857   -0.6649    0.0168 C.ar      1 <0>        -0.0901
      6 C6         -0.0209    0.0095    0.0358 C.ar      1 <0>        -0.1166
      7 C7          3.6883   -0.6923   -0.0170 C.3       1 <0>         0.0936
      8 N1          4.1345   -0.9412    1.3603 N.3       1 <0>        -0.4947
      9 C8          4.5230    0.3197    2.0274 C.3       1 <0>         0.0404
     10 C9          5.6854   -0.0746    2.9724 C.3       1 <0>         0.1313
     11 H1          5.3064   -0.5101    3.8969 H         1 <0>         0.1169
     12 C10         6.4330   -1.1363    2.1235 C.3       1 <0>        -0.1406
     13 C11         5.2877   -1.8596    1.3842 C.3       1 <0>         0.0532
     14 H2          5.5949   -2.0958    0.3654 H         1 <0>         0.1031
     15 C12         4.9213   -3.1236    2.1185 C.2       1 <0>         0.5163
     16 O1          3.8079   -3.2552    2.5809 O.2       1 <0>        -0.5048
     17 N2          5.8309   -4.1078    2.2612 N.am      1 <0>        -0.8597
     18 N3          6.5474    1.0764    3.2525 N.am      1 <0>        -0.6930
     19 C13         6.2434    1.9161    4.2620 C.2       1 <0>         0.5015
     20 O2          5.2562    1.7189    4.9384 O.2       1 <0>        -0.5083
     21 C14         7.1301    3.1001    4.5501 C.3       1 <0>         0.0112
     22 H3          7.4584    3.5453    3.6109 H         1 <0>         0.1693
     23 C15         8.3503    2.6406    5.3507 C.3       1 <0>        -0.1392
     24 C16         9.3111    3.8167    5.5360 C.3       1 <0>        -0.1493
     25 C17        10.5313    3.3572    6.3366 C.3       1 <0>         0.1006
     26 N4         11.4513    4.4834    6.5140 N.pl3     1 <0>        -0.7324
     27 C18        12.6035    4.3123    7.1939 C.2       1 <0>         0.7148
     28 N5         12.8606    3.1349    7.7998 N.pl3     1 <0>        -0.7909
     29 N6         13.4974    5.3170    7.2679 N.2       1 <0>        -0.4920
     30 N7         13.2111    6.4728    6.7718 N.pl3     1 <0>         0.1913
     31 O3         12.7089    7.4145    7.5434 O.2       1 <0>        -0.2308
     32 O4         13.4211    6.7111    5.4937 O.3       1 <0>        -0.2473
     33 N8          6.3805    4.0954    5.3282 N.4       1 <0>        -0.6235
     34 H4         -0.9825    1.9186    0.0670 H         1 <0>         0.1235
     35 H5          1.1324    3.1794    0.0449 H         1 <0>         0.1202
     36 H6          3.2815    1.9781    0.0082 H         1 <0>         0.1117
     37 H7          1.2006   -1.7447    0.0084 H         1 <0>         0.1246
     38 H8         -0.9485   -0.5434    0.0437 H         1 <0>         0.1255
     39 H9          3.5642   -1.6427   -0.5361 H         1 <0>         0.0898
     40 H10         4.4327   -0.0890   -0.5367 H         1 <0>         0.0493
     41 H11         4.8625    1.0491    1.2921 H         1 <0>         0.0557
     42 H12         3.6864    0.7189    2.6009 H         1 <0>         0.0936
     43 H13         7.1076   -0.6571    1.4140 H         1 <0>         0.0920
     44 H14         6.9762   -1.8300    2.7652 H         1 <0>         0.0952
     45 H15         6.7214   -4.0026    1.8914 H         1 <0>         0.3989
     46 H16         5.5951   -4.9214    2.7339 H         1 <0>         0.4069
     47 H17         7.3369    1.2341    2.7115 H         1 <0>         0.4111
     48 H18         8.0286    2.2769    6.3266 H         1 <0>         0.1076
     49 H19         8.8567    1.8389    4.8130 H         1 <0>         0.1250
     50 H20         9.6327    4.1804    4.5601 H         1 <0>         0.1008
     51 H21         8.8047    4.6184    6.0736 H         1 <0>         0.0781
     52 H22        10.2097    2.9935    7.3125 H         1 <0>         0.0876
     53 H23        11.0377    2.5556    5.7989 H         1 <0>         0.0921
     54 H24        12.2168    2.4113    7.7465 H         1 <0>         0.4242
     55 H25        13.6893    3.0118    8.2887 H         1 <0>         0.4401
     56 H26         6.0766    3.6833    6.1976 H         1 <0>         0.4442
     57 H27         6.9741    4.8881    5.5211 H         1 <0>         0.4411
     58 H28        11.2318    5.3522    6.1426 H         1 <0>         0.4251
     59 H29         5.5758    4.3985    4.8002 H         1 <0>         0.4447
@<TRIPOS>BOND
     1    1    6 ar
     2    1    2 ar
     3    1   34 1
     4    2    3 ar
     5    2   35 1
     6    3    4 ar
     7    3   36 1
     8    4    5 ar
     9    4    7 1
    10    5    6 ar
    11    5   37 1
    12    6   38 1
    13    7    8 1
    14    7   39 1
    15    7   40 1
    16    8   13 1
    17    8    9 1
    18    9   10 1
    19    9   41 1
    20    9   42 1
    21   10   11 1
    22   10   12 1
    23   10   18 1
    24   12   13 1
    25   12   43 1
    26   12   44 1
    27   13   14 1
    28   13   15 1
    29   15   16 2
    30   15   17 am
    31   17   45 1
    32   17   46 1
    33   18   19 am
    34   18   47 1
    35   19   20 2
    36   19   21 1
    37   21   22 1
    38   21   23 1
    39   21   33 1
    40   23   24 1
    41   23   48 1
    42   23   49 1
    43   24   25 1
    44   24   50 1
    45   24   51 1
    46   25   26 1
    47   25   52 1
    48   25   53 1
    49   26   27 1
    50   26   58 1
    51   27   28 1
    52   27   29 2
    53   28   54 1
    54   28   55 1
    55   29   30 1
    56   30   31 2
    57   30   32 1
    58   33   56 1
    59   33   57 1
    60   33   59 1
@<TRIPOS>MOLECULE
CHEMBL185441
   25    26     0     0     0
SMALL
USER_CHARGES

@<TRIPOS>ATOM
      1 C1         -0.0186    1.5200    0.0104 C.3       1 <0>        -0.1281
      2 C2          1.4315    2.0169   -0.0008 C.3       1 <0>        -0.1203
      3 C3          2.0889    1.6108    1.3107 C.3       1 <0>        -0.1169
      4 C4          2.0825    0.1097    1.5258 C.3       1 <0>        -0.0702
      5 C5          0.7835   -0.5867    1.1423 C.3       1 <0>        -0.0917
      6 C6          0.0021   -0.0041    0.0020 C.3       1 <0>        -0.1137
      7 C7          0.0007   -0.5467    2.4707 C.3       1 <0>         0.0727
      8 N1          1.0474   -0.5036    3.5036 N.pl3     1 <0>        -0.6096
      9 C8          2.1916   -0.1552    3.0214 C.cat     1 <0>         0.5169
     10 N2          3.3444   -0.0400    3.7525 N.pl3     1 <0>        -0.7752
     11 H1         -0.5227    1.8763    0.9088 H         1 <0>         0.0662
     12 H2         -0.5397    1.8858   -0.8743 H         1 <0>         0.0833
     13 H3          1.9677    1.5653   -0.8354 H         1 <0>         0.0777
     14 H4          1.4468    3.1024   -0.0983 H         1 <0>         0.0831
     15 H5          3.1207    1.9623    1.3112 H         1 <0>         0.0859
     16 H6          1.5563    2.0869    2.1340 H         1 <0>         0.0704
     17 H7          2.9260   -0.3438    1.0052 H         1 <0>         0.1366
     18 H8          1.0039   -1.6300    0.9162 H         1 <0>         0.1047
     19 H9         -1.0235   -0.3691    0.0569 H         1 <0>         0.0853
     20 H10         0.4431   -0.3437   -0.9351 H         1 <0>         0.0855
     21 H11        -0.6214    0.3470    2.5203 H         1 <0>         0.1184
     22 H12        -0.6086   -1.4436    2.5819 H         1 <0>         0.1259
     23 H13         4.1695    0.2276    3.3182 H         1 <0>         0.4460
     24 H14         3.3357   -0.2260    4.7045 H         1 <0>         0.4297
     25 H15         0.8947   -0.7126    4.4384 H         1 <0>         0.4375
@<TRIPOS>BOND
     1    1    6 1
     2    1    2 1
     3    1   11 1
     4    1   12 1
     5    2    3 1
     6    2   13 1
     7    2   14 1
     8    3    4 1
     9    3   15 1
    10    3   16 1
    11    4    9 1
    12    4    5 1
    13    4   17 1
    14    5    6 1
    15    5    7 1
    16    5   18 1
    17    6   19 1
    18    6   20 1
    19    7    8 1
    20    7   21 1
    21    7   22 1
    22    8    9 2
    23    8   25 1
    24    9   10 1
    25   10   23 1
    26   10   24 1
@<TRIPOS>MOLECULE
CHEMBL185441__1
   25    26     0     0     0
SMALL
USER_CHARGES

@<TRIPOS>ATOM
      1 C1         -0.0188    1.5368    0.0105 C.3       1 <0>        -0.1284
      2 C2          1.3881    2.1249    0.0002 C.3       1 <0>        -0.1227
      3 C3          2.2586    1.5541    1.1354 C.3       1 <0>        -0.1071
      4 C4          2.2459    0.0547    0.9831 C.3       1 <0>        -0.1176
      5 C5          0.7857   -0.4245    1.2317 C.3       1 <0>        -0.1005
      6 C6          0.0021   -0.0041    0.0020 C.3       1 <0>        -0.1095
      7 C7          1.0724   -1.9163    1.4112 C.3       1 <0>         0.0840
      8 N1          2.3809   -1.9179    2.1086 N.pl3     1 <0>        -0.6233
      9 C8          3.0393   -0.8085    1.8980 C.cat     1 <0>         0.5365
     10 N2          4.2605   -0.4926    2.4327 N.pl3     1 <0>        -0.7689
     11 H1         -0.5401    1.8796    0.9043 H         1 <0>         0.0706
     12 H2         -0.5571    1.8892   -0.8694 H         1 <0>         0.0803
     13 H3          1.8598    1.8993   -0.9562 H         1 <0>         0.0714
     14 H4          1.3211    3.2068    0.1145 H         1 <0>         0.0824
     15 H5          3.2783    1.9288    1.0472 H         1 <0>         0.0821
     16 H6          1.8402    1.8338    2.1022 H         1 <0>         0.0842
     17 H7          2.5079   -0.1941   -0.0453 H         1 <0>         0.1427
     18 H8          0.3674    0.0198    2.1348 H         1 <0>         0.1145
     19 H9         -1.0149   -0.3927    0.0551 H         1 <0>         0.0890
     20 H10         0.4963   -0.3669   -0.8992 H         1 <0>         0.0802
     21 H11         0.3056   -2.3853    2.0279 H         1 <0>         0.1266
     22 H12         1.1495   -2.4137    0.4444 H         1 <0>         0.1195
     23 H13         4.6774    0.3573    2.2211 H         1 <0>         0.4462
     24 H14         4.7082   -1.1188    3.0229 H         1 <0>         0.4301
     25 H15         2.7074   -2.6508    2.6537 H         1 <0>         0.4378
@<TRIPOS>BOND
     1    1    6 1
     2    1    2 1
     3    1   11 1
     4    1   12 1
     5    2    3 1
     6    2   13 1
     7    2   14 1
     8    3    4 1
     9    3   15 1
    10    3   16 1
    11    4    9 1
    12    4    5 1
    13    4   17 1
    14    5    6 1
    15    5    7 1
    16    5   18 1
    17    6   19 1
    18    6   20 1
    19    7    8 1
    20    7   21 1
    21    7   22 1
    22    8    9 2
    23    8   25 1
    24    9   10 1
    25   10   23 1
    26   10   24 1
@<TRIPOS>MOLECULE
CHEMBL185441__2
   25    26     0     0     0
SMALL
USER_CHARGES

@<TRIPOS>ATOM
      1 C1         -0.0188    1.5368    0.0105 C.3       1 <0>        -0.1284
      2 C2          1.3881    2.1249    0.0002 C.3       1 <0>        -0.1227
      3 C3          2.2367    1.5664   -1.1574 C.3       1 <0>        -0.1071
      4 C4          2.2267    0.0654   -1.0210 C.3       1 <0>        -0.1176
      5 C5          0.7620   -0.4112   -1.2468 C.3       1 <0>        -0.1005
      6 C6          0.0021   -0.0041    0.0020 C.3       1 <0>        -0.1095
      7 C7          1.0451   -1.9009   -1.4478 C.3       1 <0>         0.0841
      8 N1          2.3400   -1.8949   -2.1700 N.pl3     1 <0>        -0.6233
      9 C8          3.0025   -0.7878   -1.9602 C.cat     1 <0>         0.5365
     10 N2          4.2129   -0.4657   -2.5152 N.pl3     1 <0>        -0.7689
     11 H1         -0.5401    1.8796    0.9043 H         1 <0>         0.0803
     12 H2         -0.5571    1.8892   -0.8694 H         1 <0>         0.0706
     13 H3          1.3190    3.2080   -0.1011 H         1 <0>         0.0824
     14 H4          1.8779    1.8891    0.9449 H         1 <0>         0.0714
     15 H5          1.7999    1.8564   -2.1131 H         1 <0>         0.0842
     16 H6          3.2580    1.9402   -1.0847 H         1 <0>         0.0821
     17 H7          2.5083   -0.1943   -0.0006 H         1 <0>         0.1427
     18 H8          0.3266    0.0427   -2.1370 H         1 <0>         0.1145
     19 H9          0.5134   -0.3765    0.8897 H         1 <0>         0.0802
     20 H10        -1.0158   -0.3922   -0.0358 H         1 <0>         0.0890
     21 H11         1.1406   -2.4087   -0.4881 H         1 <0>         0.1195
     22 H12         0.2666   -2.3633   -2.0547 H         1 <0>         0.1266
     23 H13         4.6336    0.3821   -2.3029 H         1 <0>         0.4462
     24 H14         4.6492   -1.0855   -3.1205 H         1 <0>         0.4301
     25 H15         2.6565   -2.6223   -2.7283 H         1 <0>         0.4378
@<TRIPOS>BOND
     1    1    6 1
     2    1    2 1
     3    1   11 1
     4    1   12 1
     5    2    3 1
     6    2   13 1
     7    2   14 1
     8    3    4 1
     9    3   15 1
    10    3   16 1
    11    4    9 1
    12    4    5 1
    13    4   17 1
    14    5    6 1
    15    5    7 1
    16    5   18 1
    17    6   19 1
    18    6   20 1
    19    7    8 1
    20    7   21 1
    21    7   22 1
    22    8    9 2
    23    8   25 1
    24    9   10 1
    25   10   23 1
    26   10   24 1
@<TRIPOS>MOLECULE
CHEMBL185441__3
   25    26     0     0     0
SMALL
USER_CHARGES

@<TRIPOS>ATOM
      1 C1         -0.0185    1.5104    0.0103 C.3       1 <0>        -0.1261
      2 C2          1.4047    2.0655   -0.0003 C.3       1 <0>        -0.1201
      3 C3          2.0946    1.5913   -1.2786 C.3       1 <0>        -0.1185
      4 C4          2.2614    0.0724   -1.2483 C.3       1 <0>        -0.0721
      5 C5          0.9364   -0.6398   -0.9713 C.3       1 <0>        -0.0900
      6 C6          0.0021   -0.0041    0.0020 C.3       1 <0>        -0.1134
      7 C7          0.3506   -0.7680   -2.3901 C.3       1 <0>         0.0740
      8 N1          1.5360   -0.8144   -3.2613 N.pl3     1 <0>        -0.6107
      9 C8          2.5924   -0.3717   -2.6681 C.cat     1 <0>         0.5165
     10 N2          3.8380   -0.3095   -3.2351 N.pl3     1 <0>        -0.7751
     11 H1         -0.5335    1.8582    0.9059 H         1 <0>         0.0820
     12 H2         -0.5504    1.8677   -0.8714 H         1 <0>         0.0658
     13 H3          1.3743    3.1550    0.0185 H         1 <0>         0.0833
     14 H4          1.9491    1.6976    0.8694 H         1 <0>         0.0771
     15 H5          1.4905    1.8719   -2.1413 H         1 <0>         0.0744
     16 H6          3.0749    2.0616   -1.3566 H         1 <0>         0.0851
     17 H7          3.0399   -0.2257   -0.5460 H         1 <0>         0.1421
     18 H8          1.1603   -1.6477   -0.6220 H         1 <0>         0.1021
     19 H9          0.2685   -0.3460    1.0021 H         1 <0>         0.0827
     20 H10        -1.0063   -0.3566   -0.2147 H         1 <0>         0.0839
     21 H11        -0.2282   -1.6870   -2.4830 H         1 <0>         0.1262
     22 H12        -0.2657    0.0987   -2.6290 H         1 <0>         0.1180
     23 H13         4.5866    0.0368   -2.7246 H         1 <0>         0.4461
     24 H14         3.9714   -0.6118   -4.1471 H         1 <0>         0.4294
     25 H15         1.5243   -1.1401   -4.1749 H         1 <0>         0.4375
@<TRIPOS>BOND
     1    1    6 1
     2    1    2 1
     3    1   11 1
     4    1   12 1
     5    2    3 1
     6    2   13 1
     7    2   14 1
     8    3    4 1
     9    3   15 1
    10    3   16 1
    11    4    9 1
    12    4    5 1
    13    4   17 1
    14    5    6 1
    15    5    7 1
    16    5   18 1
    17    6   19 1
    18    6   20 1
    19    7    8 1
    20    7   21 1
    21    7   22 1
    22    8    9 2
    23    8   25 1
    24    9   10 1
    25   10   23 1
    26   10   24 1
@<TRIPOS>MOLECULE
CHEMBL362148
   13    13     0     0     0
SMALL
USER_CHARGES

@<TRIPOS>ATOM
      1 C1         -0.0176    1.4473    0.0100 C.3       1 <0>         0.0711
      2 C2          1.4234    2.0262   -0.0007 C.3       1 <0>        -0.1071
      3 S1          2.2887    0.5781   -0.7452 S.3       1 <0>         0.0321
      4 C3          1.0642   -0.6637   -0.3628 C.cat     1 <0>         0.4903
      5 N1          0.0021   -0.0041    0.0020 N.pl3     1 <0>        -0.6392
      6 N2          1.2115   -2.0294   -0.4377 N.pl3     1 <0>        -0.7450
      7 H1         -0.5355    1.7932    0.9046 H         1 <0>         0.1420
      8 H2         -0.5524    1.8027   -0.8708 H         1 <0>         0.1315
      9 H3          1.4969    2.9083   -0.6368 H         1 <0>         0.1650
     10 H4          1.7808    2.2320    1.0083 H         1 <0>         0.1411
     11 H5          2.0558   -2.4112   -0.7246 H         1 <0>         0.4523
     12 H6          0.4710   -2.6107   -0.2036 H         1 <0>         0.4350
     13 H7         -0.7910   -0.4920    0.2736 H         1 <0>         0.4308
@<TRIPOS>BOND
     1    1    5 1
     2    1    2 1
     3    1    7 1
     4    1    8 1
     5    2    3 1
     6    2    9 1
     7    2   10 1
     8    3    4 1
     9    4    5 2
    10    4    6 1
    11    5   13 1
    12    6   11 1
    13    6   12 1
@<TRIPOS>MOLECULE
CHEMBL256618
   44    46     0     0     0
SMALL
USER_CHARGES

@<TRIPOS>ATOM
      1 C1         -0.5314    0.3659    1.0836 C.ar      1 <0>        -0.1031
      2 C2         -0.0582   -0.8806    1.4363 C.ar      1 <0>        -0.0556
      3 C3          1.2514   -1.2437    1.1149 C.ar      1 <0>        -0.0056
      4 C4          2.0740   -0.3406    0.4375 C.ar      1 <0>        -0.0300
      5 C5          1.5892    0.9026    0.0905 C.ar      1 <0>        -0.1076
      6 C6          0.2892    1.2568    0.4122 C.ar      1 <0>        -0.0069
      7 Cl1        -0.3140    2.8238   -0.0286 Cl        1 <0>        -0.0452
      8 C7          3.4887   -0.7241    0.0873 C.3       1 <0>         0.0788
      9 N1          4.3240   -0.6698    1.2945 N.3       1 <0>        -0.5169
     10 C8          4.5996    0.7202    1.6818 C.3       1 <0>         0.0795
     11 C9          5.1232    0.7549    3.1190 C.3       1 <0>        -0.1536
     12 C10         4.2736    1.4821    4.1630 C.3       1 <0>        -0.1693
     13 C11         5.5812    2.1061    3.6715 C.3       1 <0>        -0.1785
     14 C12         5.5721   -1.4209    1.1053 C.3       1 <0>         0.0741
     15 C13         6.3422   -0.8429   -0.0855 C.3       1 <0>        -0.1900
     16 C14         7.6010   -1.6790   -0.3263 C.3       1 <0>        -0.0009
     17 N2          7.2227   -3.0678   -0.6139 N.4       1 <0>        -0.5063
     18 C15         6.5469   -3.6514    0.5511 C.3       1 <0>        -0.0038
     19 C16         5.2476   -2.8912    0.8256 C.3       1 <0>        -0.1499
     20 C17         1.7489   -2.5362    1.4786 C.1       1 <0>         0.2627
     21 N3          2.1437   -3.5616    1.7671 N.1       1 <0>        -0.4106
     22 H1         -1.5454    0.6462    1.3277 H         1 <0>         0.1496
     23 H2         -0.6990   -1.5744    1.9602 H         1 <0>         0.1468
     24 H3          2.2244    1.6018   -0.4329 H         1 <0>         0.1419
     25 H4          3.5011   -1.7360   -0.3179 H         1 <0>         0.0907
     26 H5          3.8797   -0.0300   -0.6567 H         1 <0>         0.0623
     27 H6          5.3487    1.1423    1.0119 H         1 <0>         0.0487
     28 H7          3.6820    1.3047    1.6152 H         1 <0>         0.0874
     29 H8          5.6683   -0.1319    3.4423 H         1 <0>         0.1039
     30 H9          3.3416    1.9359    3.8261 H         1 <0>         0.0961
     31 H10         4.2594    1.0737    5.1735 H         1 <0>         0.0957
     32 H11         6.4274    2.1082    4.3587 H         1 <0>         0.0970
     33 H12         5.5095    2.9703    3.0112 H         1 <0>         0.0955
     34 H13         6.1820   -1.3472    2.0057 H         1 <0>         0.1074
     35 H14         5.7119   -0.8699   -0.9743 H         1 <0>         0.0905
     36 H15         6.6253    0.1875    0.1296 H         1 <0>         0.1169
     37 H16         8.1517   -1.2701   -1.1733 H         1 <0>         0.1340
     38 H17         8.2307   -1.6511    0.5630 H         1 <0>         0.1324
     39 H18         6.6002   -3.0883   -1.4077 H         1 <0>         0.4270
     40 H19         6.3195   -4.6986    0.3518 H         1 <0>         0.1369
     41 H20         7.1991   -3.5815    1.4217 H         1 <0>         0.1334
     42 H21         4.7483   -3.3249    1.6920 H         1 <0>         0.1235
     43 H22         4.5945   -2.9607   -0.0443 H         1 <0>         0.0878
     44 H23         8.0510   -3.6041   -0.8246 H         1 <0>         0.4334
@<TRIPOS>BOND
     1    1    6 ar
     2    1    2 ar
     3    1   22 1
     4    2    3 ar
     5    2   23 1
     6    3    4 ar
     7    3   20 1
     8    4    5 ar
     9    4    8 1
    10    5    6 ar
    11    5   24 1
    12    6    7 1
    13    8    9 1
    14    8   25 1
    15    8   26 1
    16    9   10 1
    17    9   14 1
    18   10   11 1
    19   10   27 1
    20   10   28 1
    21   11   13 1
    22   11   12 1
    23   11   29 1
    24   12   13 1
    25   12   30 1
    26   12   31 1
    27   13   32 1
    28   13   33 1
    29   14   19 1
    30   14   15 1
    31   14   34 1
    32   15   16 1
    33   15   35 1
    34   15   36 1
    35   16   17 1
    36   16   37 1
    37   16   38 1
    38   17   18 1
    39   17   39 1
    40   17   44 1
    41   18   19 1
    42   18   40 1
    43   18   41 1
    44   19   42 1
    45   19   43 1
    46   20   21 3
@<TRIPOS>MOLECULE
CHEMBL43815
   50    52     0     0     0
SMALL
USER_CHARGES

@<TRIPOS>ATOM
      1 C1          0.5581   -0.4088   -1.1741 C.3       1 <0>        -0.0550
      2 N1         -0.1153   -0.0231    0.0731 N.4       1 <0>        -0.3890
      3 C2         -0.1231    1.4410    0.1929 C.3       1 <0>        -0.0493
      4 C3         -1.4975   -0.5204    0.0573 C.3       1 <0>        -0.0026
      5 C4         -1.4890   -2.0504    0.0572 C.3       1 <0>         0.0209
      6 O1         -0.8816   -2.5234    1.2611 O.3       1 <0>        -0.3188
      7 C5         -0.7943   -3.8696    1.4201 C.ar      1 <0>         0.1586
      8 C6         -1.2802   -4.7099    0.4309 C.ar      1 <0>        -0.2040
      9 C7         -1.1947   -6.0767    0.5886 C.ar      1 <0>        -0.0258
     10 C8         -0.6228   -6.6030    1.7431 C.ar      1 <0>        -0.1383
     11 C9         -0.1330   -5.7528    2.7425 C.ar      1 <0>        -0.0097
     12 C10        -0.2112   -4.3919    2.5750 C.ar      1 <0>        -0.0872
     13 C11         0.3141   -3.4174    3.5967 C.3       1 <0>        -0.0769
     14 C12         0.5121   -4.1067    4.9451 C.3       1 <0>        -0.1266
     15 C13         1.3396   -5.3779    4.7215 C.3       1 <0>        -0.1213
     16 C14         0.4669   -6.3866    3.9702 C.3       1 <0>        -0.1003
     17 C15        -0.5320   -8.0727    1.9164 C.ar      1 <0>         0.2315
     18 C16        -0.0655   -8.8630    0.8693 C.ar      1 <0>        -0.1566
     19 C17         0.0155  -10.2356    1.0415 C.ar      1 <0>         0.0411
     20 C18        -0.3728  -10.7754    2.2562 C.ar      1 <0>        -0.1942
     21 C19        -0.8301   -9.9300    3.2623 C.ar      1 <0>         0.4572
     22 N2         -0.8913   -8.6223    3.0704 N.ar      1 <0>        -0.5077
     23 N3         -1.2221  -10.4646    4.4840 N.pl3     1 <0>        -0.8186
     24 H1          1.5837   -0.0398   -1.1624 H         1 <0>         0.1297
     25 H2          0.5639   -1.4951   -1.2630 H         1 <0>         0.1189
     26 H3          0.0266    0.0224   -2.0224 H         1 <0>         0.1273
     27 H4         -0.5784    1.8760   -0.6968 H         1 <0>         0.1258
     28 H5         -0.6969    1.7305    1.0732 H         1 <0>         0.1262
     29 H6          0.9004    1.8030    0.2911 H         1 <0>         0.1284
     30 H7         -2.0235   -0.1600    0.9414 H         1 <0>         0.1446
     31 H8         -2.0032   -0.1598   -0.8385 H         1 <0>         0.1544
     32 H9         -2.5129   -2.4194   -0.0024 H         1 <0>         0.1144
     33 H10        -0.9224   -2.4105   -0.8014 H         1 <0>         0.0936
     34 H11        -1.7252   -4.2948   -0.4614 H         1 <0>         0.1457
     35 H12        -1.5700   -6.7361   -0.1800 H         1 <0>         0.1474
     36 H13         1.2683   -3.0172    3.2542 H         1 <0>         0.0831
     37 H14        -0.3972   -2.5996    3.7122 H         1 <0>         0.0841
     38 H15         1.0415   -3.4388    5.6246 H         1 <0>         0.0830
     39 H16        -0.4572   -4.3694    5.3689 H         1 <0>         0.0702
     40 H17         2.2268   -5.1400    4.1346 H         1 <0>         0.0776
     41 H18         1.6363   -5.7968    5.6830 H         1 <0>         0.0823
     42 H19        -0.3337   -6.7398    4.6200 H         1 <0>         0.0770
     43 H20         1.0863   -7.2324    3.6718 H         1 <0>         0.0810
     44 H21         0.2295   -8.4115   -0.0664 H         1 <0>         0.1793
     45 H22         0.3735  -10.8710    0.2450 H         1 <0>         0.1802
     46 H23        -0.3216  -11.8416    2.4208 H         1 <0>         0.1841
     47 H24        -1.1760  -11.4222    4.6316 H         1 <0>         0.4438
     48 H25        -1.5417   -9.8801    5.1891 H         1 <0>         0.4215
     49 H26         0.3767   -0.4222    0.8584 H         1 <0>         0.4318
     50 H27        -1.2094   -8.0524    3.7880 H         1 <0>         0.4371
@<TRIPOS>BOND
     1    1    2 1
     2    1   24 1
     3    1   25 1
     4    1   26 1
     5    2    3 1
     6    2    4 1
     7    2   49 1
     8    3   27 1
     9    3   28 1
    10    3   29 1
    11    4    5 1
    12    4   30 1
    13    4   31 1
    14    5    6 1
    15    5   32 1
    16    5   33 1
    17    6    7 1
    18    7   12 ar
    19    7    8 ar
    20    8    9 ar
    21    8   34 1
    22    9   10 ar
    23    9   35 1
    24   10   11 ar
    25   10   17 1
    26   11   16 1
    27   11   12 ar
    28   12   13 1
    29   13   14 1
    30   13   36 1
    31   13   37 1
    32   14   15 1
    33   14   38 1
    34   14   39 1
    35   15   16 1
    36   15   40 1
    37   15   41 1
    38   16   42 1
    39   16   43 1
    40   17   22 ar
    41   17   18 ar
    42   18   19 ar
    43   18   44 1
    44   19   20 ar
    45   19   45 1
    46   20   21 ar
    47   20   46 1
    48   21   22 ar
    49   21   23 1
    50   22   50 1
    51   23   47 1
    52   23   48 1
@<TRIPOS>MOLECULE
CHEMBL43815__1
   49    51     0     0     0
SMALL
USER_CHARGES

@<TRIPOS>ATOM
      1 C1         -0.3711    1.4933    0.1615 C.3       1 <0>        -0.0545
      2 N1         -0.1616    0.0417    0.0788 N.4       1 <0>        -0.3888
      3 C2          0.5786   -0.4145    1.2628 C.3       1 <0>        -0.0475
      4 C3         -1.4625   -0.6383    0.0226 C.3       1 <0>        -0.0014
      5 C4         -2.1809   -0.2585   -1.2738 C.3       1 <0>         0.0235
      6 O1         -1.4440   -0.7592   -2.3911 O.3       1 <0>        -0.3249
      7 C5         -1.9494   -0.5066   -3.6264 C.ar      1 <0>         0.1204
      8 C6         -3.1270    0.2134   -3.7514 C.ar      1 <0>        -0.2083
      9 C7         -3.6441    0.4710   -5.0031 C.ar      1 <0>        -0.0584
     10 C8         -2.9802    0.0028   -6.1330 C.ar      1 <0>        -0.0633
     11 C9         -1.7908   -0.7256   -6.0053 C.ar      1 <0>         0.0020
     12 C10        -1.2747   -0.9699   -4.7562 C.ar      1 <0>        -0.1007
     13 C11         0.0104   -1.7267   -4.5434 C.3       1 <0>        -0.0670
     14 C12         0.3826   -2.5171   -5.7960 C.3       1 <0>        -0.1235
     15 C13         0.3378   -1.5669   -6.9986 C.3       1 <0>        -0.1239
     16 C14        -1.1263   -1.2099   -7.2673 C.3       1 <0>        -0.0763
     17 C15        -3.5357    0.2762   -7.4802 C.ar      1 <0>         0.2104
     18 C16        -3.9333    1.5684   -7.8129 C.ar      1 <0>        -0.2194
     19 C17        -4.4512    1.8133   -9.0747 C.ar      1 <0>        -0.0294
     20 C18        -4.5554    0.7577   -9.9649 C.ar      1 <0>        -0.2352
     21 C19        -4.1400   -0.5101   -9.5698 C.ar      1 <0>         0.4091
     22 N2         -3.6444   -0.7124   -8.3598 N.ar      1 <0>        -0.5332
     23 N3         -4.2420   -1.5746  -10.4578 N.pl3     1 <0>        -0.8501
     24 H1          0.5942    1.9979    0.2033 H         1 <0>         0.1271
     25 H2         -0.9203    1.8319   -0.7170 H         1 <0>         0.1219
     26 H3         -0.9425    1.7274    1.0598 H         1 <0>         0.1245
     27 H4          0.0072   -0.1805    2.1610 H         1 <0>         0.1229
     28 H5          0.7340   -1.4916    1.2014 H         1 <0>         0.1247
     29 H6          1.5439    0.0901    1.3046 H         1 <0>         0.1257
     30 H7         -1.3100   -1.7172    0.0508 H         1 <0>         0.1424
     31 H8         -2.0685   -0.3346    0.8762 H         1 <0>         0.1491
     32 H9         -3.1813   -0.6912   -1.2750 H         1 <0>         0.1090
     33 H10        -2.2544    0.8268   -1.3439 H         1 <0>         0.0873
     34 H11        -3.6385    0.5716   -2.8702 H         1 <0>         0.1302
     35 H12        -4.5604    1.0333   -5.1063 H         1 <0>         0.1338
     36 H13         0.8088   -1.0213   -4.3131 H         1 <0>         0.0716
     37 H14        -0.1123   -2.4151   -3.7073 H         1 <0>         0.0735
     38 H15         1.3877   -2.9249   -5.6876 H         1 <0>         0.0705
     39 H16        -0.3296   -3.3290   -5.9430 H         1 <0>         0.0686
     40 H17         0.9082   -0.6653   -6.7755 H         1 <0>         0.0648
     41 H18         0.7595   -2.0618   -7.8734 H         1 <0>         0.0719
     42 H19        -1.6583   -2.0850   -7.6405 H         1 <0>         0.0954
     43 H20        -1.1627   -0.4207   -8.0183 H         1 <0>         0.0743
     44 H21        -3.8394    2.3704   -7.0958 H         1 <0>         0.1309
     45 H22        -4.7672    2.8065   -9.3577 H         1 <0>         0.1373
     46 H23        -4.9554    0.9168  -10.9555 H         1 <0>         0.1334
     47 H24        -4.6012   -1.4315  -11.3474 H         1 <0>         0.4110
     48 H25        -3.9540   -2.4607  -10.1878 H         1 <0>         0.4047
     49 H26         0.3674   -0.1749   -0.7527 H         1 <0>         0.4339
@<TRIPOS>BOND
     1    1    2 1
     2    1   24 1
     3    1   25 1
     4    1   26 1
     5    2    3 1
     6    2    4 1
     7    2   49 1
     8    3   27 1
     9    3   28 1
    10    3   29 1
    11    4    5 1
    12    4   30 1
    13    4   31 1
    14    5    6 1
    15    5   32 1
    16    5   33 1
    17    6    7 1
    18    7   12 ar
    19    7    8 ar
    20    8    9 ar
    21    8   34 1
    22    9   10 ar
    23    9   35 1
    24   10   11 ar
    25   10   17 1
    26   11   16 1
    27   11   12 ar
    28   12   13 1
    29   13   14 1
    30   13   36 1
    31   13   37 1
    32   14   15 1
    33   14   38 1
    34   14   39 1
    35   15   16 1
    36   15   40 1
    37   15   41 1
    38   16   42 1
    39   16   43 1
    40   17   22 ar
    41   17   18 ar
    42   18   19 ar
    43   18   44 1
    44   19   20 ar
    45   19   45 1
    46   20   21 ar
    47   20   46 1
    48   21   22 ar
    49   21   23 1
    50   23   47 1
    51   23   48 1
@<TRIPOS>MOLECULE
CHEMBL1222746
   60    63     0     0     0
SMALL
USER_CHARGES

@<TRIPOS>ATOM
      1 C1         -0.0184    1.5028    0.0103 C.3       1 <0>        -0.1468
      2 C2          0.0021   -0.0041    0.0020 C.ar      1 <0>         0.0814
      3 C3          0.0062   -0.7075   -1.1955 C.ar      1 <0>        -0.1778
      4 C4          0.0255   -2.0874   -1.1689 C.ar      1 <0>         0.1674
      5 N1          0.0401   -2.7422   -0.0232 N.ar      1 <0>        -0.5085
      6 C5          0.0364   -2.1079    1.1389 C.ar      1 <0>         0.4658
      7 C6          0.0230   -0.7174    1.1866 C.ar      1 <0>        -0.2014
      8 N2          0.0518   -2.8376    2.3220 N.pl3     1 <0>        -0.8130
      9 C7          0.0295   -2.8562   -2.4651 C.3       1 <0>        -0.0810
     10 C8          1.4659   -2.9882   -2.9753 C.3       1 <0>        -0.1111
     11 H1          2.1015   -3.4265   -2.2058 H         1 <0>         0.1204
     12 C9          2.0127   -1.6087   -3.4008 C.3       1 <0>        -0.0097
     13 N3          2.8422   -1.8888   -4.6010 N.4       1 <0>        -0.5132
     14 C10         2.0685   -2.9133   -5.3484 C.3       1 <0>        -0.0330
     15 C11         1.5029   -3.8488   -4.2550 C.3       1 <0>         0.0724
     16 H2          2.1581   -4.7085   -4.1143 H         1 <0>         0.1116
     17 O1          0.1852   -4.2792   -4.6020 O.3       1 <0>        -0.3561
     18 C12         0.1440   -5.5372   -5.2785 C.3       1 <0>         0.1031
     19 C13        -1.2864   -5.8910   -5.5945 C.ar      1 <0>        -0.1163
     20 C14        -2.0357   -6.6118   -4.6821 C.ar      1 <0>        -0.0913
     21 C15        -3.3461   -6.9386   -4.9663 C.ar      1 <0>        -0.1158
     22 C16        -3.9143   -6.5405   -6.1748 C.ar      1 <0>        -0.0103
     23 C17        -3.1551   -5.8142   -7.0900 C.ar      1 <0>        -0.1138
     24 C18        -1.8470   -5.4888   -6.7934 C.ar      1 <0>        -0.0881
     25 C19        -5.3226   -6.8893   -6.4861 C.ar      1 <0>        -0.0745
     26 C20        -6.0831   -7.6112   -5.5680 C.ar      1 <0>        -0.0824
     27 C21        -7.3921   -7.9329   -5.8613 C.ar      1 <0>        -0.1465
     28 C22        -7.9510   -7.5394   -7.0667 C.ar      1 <0>         0.1114
     29 C23        -7.1987   -6.8217   -7.9821 C.ar      1 <0>        -0.1127
     30 C24        -5.8902   -6.4910   -7.6946 C.ar      1 <0>        -0.0778
     31 C25        -7.8119   -6.3969   -9.2915 C.3       1 <0>        -0.1207
     32 F1         -9.2332   -7.8569   -7.3501 F         1 <0>        -0.1292
     33 H3          1.0042    1.8801    0.0026 H         1 <0>         0.1087
     34 H4         -0.5455    1.8639   -0.8728 H         1 <0>         0.0972
     35 H5         -0.5286    1.8543    0.9071 H         1 <0>         0.0990
     36 H6         -0.0061   -0.1802   -2.1379 H         1 <0>         0.1757
     37 H7          0.0246   -0.2022    2.1358 H         1 <0>         0.1838
     38 H8          0.0651   -3.8071    2.2937 H         1 <0>         0.4243
     39 H9          0.0491   -2.3773    3.1758 H         1 <0>         0.4452
     40 H10        -0.3902   -3.8485   -2.3002 H         1 <0>         0.1225
     41 H11        -0.5712   -2.3258   -3.2040 H         1 <0>         0.1354
     42 H12         1.1929   -0.9363   -3.6537 H         1 <0>         0.1435
     43 H13         2.6250   -1.1811   -2.6068 H         1 <0>         0.1433
     44 H14         2.9515   -1.0540   -5.1571 H         1 <0>         0.4438
     45 H15         1.2574   -2.4452   -5.9061 H         1 <0>         0.1504
     46 H16         2.7228   -3.4681   -6.0209 H         1 <0>         0.1475
     47 H17         0.7149   -5.4706   -6.2046 H         1 <0>         0.0707
     48 H18         0.5762   -6.3075   -4.6399 H         1 <0>         0.0721
     49 H19        -1.5942   -6.9198   -3.7458 H         1 <0>         0.1228
     50 H20        -3.9300   -7.5020   -4.2535 H         1 <0>         0.1316
     51 H21        -3.5906   -5.5032   -8.0281 H         1 <0>         0.1327
     52 H22        -1.2589   -4.9224   -7.5002 H         1 <0>         0.1253
     53 H23        -5.6481   -7.9186   -4.6285 H         1 <0>         0.1348
     54 H24        -7.9821   -8.4926   -5.1506 H         1 <0>         0.1427
     55 H25        -5.3056   -5.9279   -8.4070 H         1 <0>         0.1359
     56 H26        -8.2727   -5.4159   -9.1757 H         1 <0>         0.0790
     57 H27        -7.0367   -6.3461  -10.0562 H         1 <0>         0.0755
     58 H28        -8.5697   -7.1213   -9.5899 H         1 <0>         0.0760
     59 H29         0.0536   -3.7120   -0.0328 H         1 <0>         0.4404
     60 H30         3.7427   -2.2547   -4.3301 H         1 <0>         0.4377
@<TRIPOS>BOND
     1    1    2 1
     2    1   33 1
     3    1   34 1
     4    1   35 1
     5    2    7 ar
     6    2    3 ar
     7    3    4 ar
     8    3   36 1
     9    4    5 ar
    10    4    9 1
    11    5    6 ar
    12    5   59 1
    13    6    7 ar
    14    6    8 1
    15    7   37 1
    16    8   38 1
    17    8   39 1
    18    9   10 1
    19    9   40 1
    20    9   41 1
    21   10   11 1
    22   10   15 1
    23   10   12 1
    24   12   13 1
    25   12   42 1
    26   12   43 1
    27   13   14 1
    28   13   44 1
    29   13   60 1
    30   14   15 1
    31   14   45 1
    32   14   46 1
    33   15   16 1
    34   15   17 1
    35   17   18 1
    36   18   19 1
    37   18   47 1
    38   18   48 1
    39   19   24 ar
    40   19   20 ar
    41   20   21 ar
    42   20   49 1
    43   21   22 ar
    44   21   50 1
    45   22   23 ar
    46   22   25 1
    47   23   24 ar
    48   23   51 1
    49   24   52 1
    50   25   30 ar
    51   25   26 ar
    52   26   27 ar
    53   26   53 1
    54   27   28 ar
    55   27   54 1
    56   28   29 ar
    57   28   32 1
    58   29   30 ar
    59   29   31 1
    60   30   55 1
    61   31   56 1
    62   31   57 1
    63   31   58 1
@<TRIPOS>MOLECULE
CHEMBL105792
   22    23     0     0     0
SMALL
USER_CHARGES

@<TRIPOS>ATOM
      1 C1         -0.0187    1.5313    0.0105 C.3       1 <0>        -0.1571
      2 C2          0.0021   -0.0041    0.0020 C.3       1 <0>        -0.0665
      3 H1         -1.0419   -0.3565    0.0101 H         1 <0>         0.1267
      4 C3          0.6823   -0.5036   -1.2711 C.3       1 <0>        -0.1448
      5 C4          2.1668   -0.2744   -1.2226 C.cat     1 <0>         0.5412
      6 N1          2.8491   -0.3772   -0.1336 N.pl3     1 <0>        -0.5773
      7 C5          2.2373   -0.6803    1.1553 C.3       1 <0>         0.0380
      8 H2          2.8257   -0.3911    2.0318 H         1 <0>         0.1853
      9 C6          0.7120   -0.5201    1.2515 C.3       1 <0>        -0.1242
     10 H3          0.3158   -0.1215    2.2019 H         1 <0>         0.1617
     11 C7          1.3367   -1.9051    1.2909 C.3       1 <0>        -0.0637
     12 H4          1.3506   -2.4153    2.2659 H         1 <0>         0.1743
     13 Cl1         1.1735   -3.0045   -0.1221 Cl        1 <0>        -0.1032
     14 N2          2.8276    0.0572   -2.3823 N.pl3     1 <0>        -0.7918
     15 H5          1.0038    1.9086    0.0027 H         1 <0>         0.0523
     16 H6         -0.5459    1.8924   -0.8726 H         1 <0>         0.0768
     17 H7         -0.5289    1.8828    0.9073 H         1 <0>         0.0808
     18 H8          0.4513   -1.5467   -1.4594 H         1 <0>         0.1545
     19 H9          0.2781    0.0685   -2.1261 H         1 <0>         0.1305
     20 H10         2.3357    0.1398   -3.2142 H         1 <0>         0.4443
     21 H11         3.7857    0.2085   -2.3682 H         1 <0>         0.4270
     22 H12         3.8149   -0.2458   -0.1779 H         1 <0>         0.4352
@<TRIPOS>BOND
     1    1    2 1
     2    1   15 1
     3    1   16 1
     4    1   17 1
     5    2    3 1
     6    2    9 1
     7    2    4 1
     8    4    5 1
     9    4   18 1
    10    4   19 1
    11    5    6 2
    12    5   14 1
    13    6    7 1
    14    6   22 1
    15    7    8 1
    16    7   11 1
    17    7    9 1
    18    9   10 1
    19    9   11 1
    20   11   12 1
    21   11   13 1
    22   14   20 1
    23   14   21 1
@<TRIPOS>MOLECULE
CHEMBL38845
   50    53     0     0     0
SMALL
USER_CHARGES

@<TRIPOS>ATOM
      1 C1         -0.0164    1.3580    0.0095 C.ar      1 <0>        -0.0642
      2 C2          1.1686    2.0901    0.0021 C.ar      1 <0>        -0.1108
      3 C3          2.3778    1.4642   -0.0132 C.ar      1 <0>        -0.0801
      4 C4          2.4343    0.0610   -0.0212 C.ar      1 <0>        -0.0712
      5 C5          1.2297   -0.6821   -0.0132 C.ar      1 <0>         0.0213
      6 C6          0.0021   -0.0041    0.0020 C.ar      1 <0>        -0.1492
      7 C7          1.2854   -2.0967   -0.0212 C.ar      1 <0>        -0.1322
      8 C8          2.5160   -2.7318   -0.0368 C.ar      1 <0>        -0.0272
      9 C9          3.6939   -1.9975   -0.0445 C.ar      1 <0>        -0.2273
     10 C10         3.6698   -0.6194   -0.0366 C.ar      1 <0>         0.1905
     11 O1          4.8322    0.0814   -0.0448 O.3       1 <0>        -0.3148
     12 C11         6.0451   -0.6741   -0.0603 C.3       1 <0>         0.0231
     13 C12         7.2406    0.2806   -0.0677 C.3       1 <0>         0.0023
     14 N1          7.2704    1.0377    1.1908 N.4       1 <0>        -0.3973
     15 C13         7.6028    0.1359    2.3233 C.3       1 <0>        -0.0113
     16 C14         8.1402    1.1074    3.4040 C.3       1 <0>        -0.1448
     17 C15         8.9304    2.1450    2.5741 C.3       1 <0>        -0.1460
     18 C16         8.3481    2.0499    1.1516 C.3       1 <0>        -0.0089
     19 C17         0.0371   -2.8914   -0.0126 C.ar      1 <0>         0.2366
     20 C18        -1.0374   -2.4809    0.7743 C.ar      1 <0>        -0.1685
     21 C19        -2.2014   -3.2320    0.7746 C.ar      1 <0>         0.0412
     22 C20        -2.2561   -4.3709   -0.0119 C.ar      1 <0>        -0.1958
     23 C21        -1.1482   -4.7263   -0.7750 C.ar      1 <0>         0.4582
     24 N2         -0.0511   -3.9869   -0.7595 N.ar      1 <0>        -0.5064
     25 N3         -1.1964   -5.8679   -1.5664 N.pl3     1 <0>        -0.8190
     26 H1         -0.9631    1.8775    0.0259 H         1 <0>         0.1414
     27 H2          1.1277    3.1693    0.0083 H         1 <0>         0.1399
     28 H3          3.2890    2.0440   -0.0195 H         1 <0>         0.1369
     29 H4         -0.9243   -0.5592    0.0082 H         1 <0>         0.1436
     30 H5          2.5596   -3.8109   -0.0425 H         1 <0>         0.1349
     31 H6          4.6427   -2.5133   -0.0563 H         1 <0>         0.1438
     32 H7          6.0906   -1.3065    0.8263 H         1 <0>         0.0934
     33 H8          6.0730   -1.2982   -0.9535 H         1 <0>         0.1157
     34 H9          8.1624   -0.2922   -0.1691 H         1 <0>         0.1546
     35 H10         7.1484    0.9718   -0.9055 H         1 <0>         0.1447
     36 H11         6.7108   -0.3798    2.6789 H         1 <0>         0.1315
     37 H12         8.3719   -0.5795    2.0324 H         1 <0>         0.1367
     38 H13         7.3178    1.5850    3.9366 H         1 <0>         0.0988
     39 H14         8.7993    0.5858    4.0980 H         1 <0>         0.1194
     40 H15         8.7804    3.1461    2.9781 H         1 <0>         0.1078
     41 H16         9.9912    1.8944    2.5661 H         1 <0>         0.1068
     42 H17         9.1245    1.7388    0.4526 H         1 <0>         0.1335
     43 H18         7.9402    3.0153    0.8521 H         1 <0>         0.1347
     44 H19        -0.9634   -1.5878    1.3772 H         1 <0>         0.1845
     45 H20        -3.0483   -2.9359    1.3757 H         1 <0>         0.1808
     46 H21        -3.1497   -4.9771   -0.0324 H         1 <0>         0.1842
     47 H22        -1.9993   -6.4119   -1.5847 H         1 <0>         0.4436
     48 H23        -0.4271   -6.1207   -2.1005 H         1 <0>         0.4216
     49 H24         6.3796    1.4840    1.3500 H         1 <0>         0.4313
     50 H25         0.7074   -4.2526   -1.3026 H         1 <0>         0.4375
@<TRIPOS>BOND
     1    1    6 ar
     2    1    2 ar
     3    1   26 1
     4    2    3 ar
     5    2   27 1
     6    3    4 ar
     7    3   28 1
     8    4   10 ar
     9    4    5 ar
    10    5    6 ar
    11    5    7 ar
    12    6   29 1
    13    7    8 ar
    14    7   19 1
    15    8    9 ar
    16    8   30 1
    17    9   10 ar
    18    9   31 1
    19   10   11 1
    20   11   12 1
    21   12   13 1
    22   12   32 1
    23   12   33 1
    24   13   14 1
    25   13   34 1
    26   13   35 1
    27   14   18 1
    28   14   15 1
    29   14   49 1
    30   15   16 1
    31   15   36 1
    32   15   37 1
    33   16   17 1
    34   16   38 1
    35   16   39 1
    36   17   18 1
    37   17   40 1
    38   17   41 1
    39   18   42 1
    40   18   43 1
    41   19   24 ar
    42   19   20 ar
    43   20   21 ar
    44   20   44 1
    45   21   22 ar
    46   21   45 1
    47   22   23 ar
    48   22   46 1
    49   23   24 ar
    50   23   25 1
    51   24   50 1
    52   25   47 1
    53   25   48 1
@<TRIPOS>MOLECULE
CHEMBL38845__1
   49    52     0     0     0
SMALL
USER_CHARGES

@<TRIPOS>ATOM
      1 C1         -0.0147    1.3564    0.1054 C.ar      1 <0>        -0.1065
      2 C2          1.1703    2.0885    0.0976 C.ar      1 <0>        -0.1104
      3 C3          2.3790    1.4631    0.0510 C.ar      1 <0>        -0.1038
      4 C4          2.4349    0.0604    0.0107 C.ar      1 <0>        -0.0615
      5 C5          1.2303   -0.6826    0.0193 C.ar      1 <0>         0.0024
      6 C6          0.0032   -0.0051    0.0672 C.ar      1 <0>        -0.0908
      7 C7          1.2854   -2.0967   -0.0212 C.ar      1 <0>        -0.0412
      8 C8          2.5154   -2.7312   -0.0685 C.ar      1 <0>        -0.0646
      9 C9          3.6934   -1.9970   -0.0766 C.ar      1 <0>        -0.2037
     10 C10         3.6698   -0.6194   -0.0375 C.ar      1 <0>         0.1333
     11 O1          4.8322    0.0814   -0.0466 O.3       1 <0>        -0.3223
     12 C11         6.0445   -0.6736   -0.0963 C.3       1 <0>         0.0254
     13 C12         7.2401    0.2811   -0.0994 C.3       1 <0>         0.0039
     14 N1          7.2881    1.0098    1.1752 N.4       1 <0>        -0.3963
     15 C13         7.6363    0.0829    2.2824 C.3       1 <0>        -0.0107
     16 C14         8.1893    1.0299    3.3768 C.3       1 <0>        -0.1448
     17 C15         8.9680    2.0858    2.5591 C.3       1 <0>        -0.1450
     18 C16         8.3654    2.0226    1.1434 C.3       1 <0>        -0.0086
     19 C17         0.0371   -2.8914   -0.0126 C.ar      1 <0>         0.2077
     20 C18        -0.1346   -3.9175   -0.9400 C.ar      1 <0>        -0.2156
     21 C19        -1.3068   -4.6555   -0.9227 C.ar      1 <0>        -0.0285
     22 C20        -2.2721   -4.3454    0.0211 C.ar      1 <0>        -0.2335
     23 C21        -2.0391   -3.3085    0.9193 C.ar      1 <0>         0.4082
     24 N2         -0.9076   -2.6238    0.8827 N.ar      1 <0>        -0.5353
     25 N3         -3.0035   -2.9921    1.8689 N.pl3     1 <0>        -0.8500
     26 H1         -0.9609    1.8754    0.1469 H         1 <0>         0.1284
     27 H2          1.1298    3.1673    0.1285 H         1 <0>         0.1276
     28 H3          3.2901    2.0430    0.0447 H         1 <0>         0.1260
     29 H4         -0.9232   -0.5603    0.0741 H         1 <0>         0.1393
     30 H5          2.5587   -3.8100   -0.0991 H         1 <0>         0.1350
     31 H6          4.6417   -2.5124   -0.1135 H         1 <0>         0.1314
     32 H7          6.1024   -1.3256    0.7752 H         1 <0>         0.0873
     33 H8          6.0595   -1.2775   -1.0036 H         1 <0>         0.1109
     34 H9          8.1602   -0.2893   -0.2267 H         1 <0>         0.1494
     35 H10         7.1361    0.9909   -0.9200 H         1 <0>         0.1418
     36 H11         6.7493   -0.4407    2.6390 H         1 <0>         0.1337
     37 H12         8.4009   -0.6259    1.9646 H         1 <0>         0.1352
     38 H13         7.3748    1.4955    3.9317 H         1 <0>         0.0984
     39 H14         8.8581    0.4929    4.0495 H         1 <0>         0.1173
     40 H15         8.8241    3.0777    2.9876 H         1 <0>         0.1055
     41 H16        10.0285    1.8355    2.5304 H         1 <0>         0.1044
     42 H17         9.1316    1.7273    0.4266 H         1 <0>         0.1315
     43 H18         7.9536    2.9945    0.8714 H         1 <0>         0.1329
     44 H19         0.6370   -4.1346   -1.6638 H         1 <0>         0.1333
     45 H20        -1.4650   -5.4556   -1.6306 H         1 <0>         0.1388
     46 H21        -3.1965   -4.9026    0.0592 H         1 <0>         0.1344
     47 H22        -3.8334   -3.4931    1.9029 H         1 <0>         0.4113
     48 H23        -2.8466   -2.2704    2.4977 H         1 <0>         0.4048
     49 H24         6.3997    1.4524    1.3571 H         1 <0>         0.4335
@<TRIPOS>BOND
     1    1    6 ar
     2    1    2 ar
     3    1   26 1
     4    2    3 ar
     5    2   27 1
     6    3    4 ar
     7    3   28 1
     8    4   10 ar
     9    4    5 ar
    10    5    6 ar
    11    5    7 ar
    12    6   29 1
    13    7    8 ar
    14    7   19 1
    15    8    9 ar
    16    8   30 1
    17    9   10 ar
    18    9   31 1
    19   10   11 1
    20   11   12 1
    21   12   13 1
    22   12   32 1
    23   12   33 1
    24   13   14 1
    25   13   34 1
    26   13   35 1
    27   14   18 1
    28   14   15 1
    29   14   49 1
    30   15   16 1
    31   15   36 1
    32   15   37 1
    33   16   17 1
    34   16   38 1
    35   16   39 1
    36   17   18 1
    37   17   40 1
    38   17   41 1
    39   18   42 1
    40   18   43 1
    41   19   24 ar
    42   19   20 ar
    43   20   21 ar
    44   20   44 1
    45   21   22 ar
    46   21   45 1
    47   22   23 ar
    48   22   46 1
    49   23   24 ar
    50   23   25 1
    51   25   47 1
    52   25   48 1
@<TRIPOS>MOLECULE
CHEMBL41343
   56    59     0     0     0
SMALL
USER_CHARGES

@<TRIPOS>ATOM
      1 C1          0.5041    1.2443   -0.1982 C.3       1 <0>        -0.0549
      2 N1          0.2923   -0.2090   -0.1656 N.4       1 <0>        -0.3876
      3 C2          1.0343   -0.7868    0.9630 C.3       1 <0>        -0.0537
      4 C3         -1.1403   -0.4916   -0.0058 C.3       1 <0>         0.0338
      5 C4         -1.3610   -2.0052    0.0282 C.3       1 <0>        -0.1413
      6 C5         -2.8531   -2.2995    0.1946 C.3       1 <0>        -0.1185
      7 C6         -3.6259   -1.6977   -0.9808 C.3       1 <0>        -0.1264
      8 C7         -3.4053   -0.1841   -1.0147 C.3       1 <0>        -0.1443
      9 C8         -1.9131    0.1102   -1.1812 C.3       1 <0>         0.0631
     10 O1         -1.4472   -0.4665   -2.4028 O.3       1 <0>        -0.3018
     11 C9         -1.6133    0.2664   -3.5330 C.ar      1 <0>         0.1890
     12 C10        -2.3080    1.4561   -3.4890 C.ar      1 <0>        -0.2333
     13 C11        -2.4889    2.2196   -4.6340 C.ar      1 <0>        -0.0266
     14 C12        -1.9750    1.8041   -5.8509 C.ar      1 <0>        -0.1329
     15 C13        -1.2566    0.5865   -5.9265 C.ar      1 <0>         0.0221
     16 C14        -1.0705   -0.1847   -4.7543 C.ar      1 <0>        -0.0717
     17 C15        -0.3534   -1.3898   -4.8297 C.ar      1 <0>        -0.0808
     18 C16         0.1572   -1.7968   -6.0246 C.ar      1 <0>        -0.1106
     19 C17        -0.0212   -1.0341   -7.1765 C.ar      1 <0>        -0.0638
     20 C18        -0.7216    0.1337   -7.1413 C.ar      1 <0>        -0.1495
     21 C19        -2.1758    2.6270   -7.0643 C.ar      1 <0>         0.2364
     22 C20        -1.1381    2.7653   -7.9844 C.ar      1 <0>        -0.1689
     23 C21        -1.3370    3.5376   -9.1171 C.ar      1 <0>         0.0410
     24 C22        -2.5673    4.1484   -9.2959 C.ar      1 <0>        -0.1957
     25 C23        -3.5622    3.9705   -8.3395 C.ar      1 <0>         0.4584
     26 N2         -3.3456    3.2229   -7.2695 N.ar      1 <0>        -0.5065
     27 N3         -4.7989    4.5809   -8.5125 N.pl3     1 <0>        -0.8186
     28 H1          1.5672    1.4539   -0.3167 H         1 <0>         0.1314
     29 H2         -0.0464    1.6730   -1.0355 H         1 <0>         0.1147
     30 H3          0.1488    1.6842    0.7337 H         1 <0>         0.1279
     31 H4          2.0973   -0.5772    0.8444 H         1 <0>         0.1294
     32 H5          0.6789   -0.3469    1.8948 H         1 <0>         0.1262
     33 H6          0.8771   -1.8652    0.9871 H         1 <0>         0.1288
     34 H7         -1.4957   -0.0516    0.9260 H         1 <0>         0.1578
     35 H8         -1.0056   -2.4452   -0.9037 H         1 <0>         0.0946
     36 H9         -0.8104   -2.4339    0.8655 H         1 <0>         0.0957
     37 H10        -3.0103   -3.3779    0.2188 H         1 <0>         0.0912
     38 H11        -3.2085   -1.8596    1.1264 H         1 <0>         0.0774
     39 H12        -3.2705   -2.1377   -1.9126 H         1 <0>         0.0757
     40 H13        -4.6889   -1.9074   -0.8622 H         1 <0>         0.0843
     41 H14        -3.9558    0.2447   -1.8521 H         1 <0>         0.0895
     42 H15        -3.7606    0.2559   -0.0829 H         1 <0>         0.0958
     43 H16        -1.7559    1.1886   -1.2053 H         1 <0>         0.1018
     44 H17        -2.7177    1.7989   -2.5503 H         1 <0>         0.1447
     45 H18        -3.0371    3.1483   -4.5752 H         1 <0>         0.1342
     46 H19        -0.2074   -1.9906   -3.9442 H         1 <0>         0.1375
     47 H20         0.7086   -2.7238   -6.0799 H         1 <0>         0.1398
     48 H21         0.3939   -1.3781   -8.1123 H         1 <0>         0.1412
     49 H22        -0.8534    0.7146   -8.0422 H         1 <0>         0.1434
     50 H23        -0.1899    2.2764   -7.8161 H         1 <0>         0.1842
     51 H24        -0.5491    3.6612   -9.8454 H         1 <0>         0.1808
     52 H25        -2.7524    4.7569  -10.1688 H         1 <0>         0.1842
     53 H26        -4.9646    5.1273   -9.2967 H         1 <0>         0.4437
     54 H27        -5.4963    4.4604   -7.8492 H         1 <0>         0.4217
     55 H28         0.6213   -0.6163   -1.0281 H         1 <0>         0.4284
     56 H29        -4.0557    3.1101   -6.6184 H         1 <0>         0.4375
@<TRIPOS>BOND
     1    1    2 1
     2    1   28 1
     3    1   29 1
     4    1   30 1
     5    2    3 1
     6    2    4 1
     7    2   55 1
     8    3   31 1
     9    3   32 1
    10    3   33 1
    11    4    9 1
    12    4    5 1
    13    4   34 1
    14    5    6 1
    15    5   35 1
    16    5   36 1
    17    6    7 1
    18    6   37 1
    19    6   38 1
    20    7    8 1
    21    7   39 1
    22    7   40 1
    23    8    9 1
    24    8   41 1
    25    8   42 1
    26    9   10 1
    27    9   43 1
    28   10   11 1
    29   11   16 ar
    30   11   12 ar
    31   12   13 ar
    32   12   44 1
    33   13   14 ar
    34   13   45 1
    35   14   15 ar
    36   14   21 1
    37   15   20 ar
    38   15   16 ar
    39   16   17 ar
    40   17   18 ar
    41   17   46 1
    42   18   19 ar
    43   18   47 1
    44   19   20 ar
    45   19   48 1
    46   20   49 1
    47   21   26 ar
    48   21   22 ar
    49   22   23 ar
    50   22   50 1
    51   23   24 ar
    52   23   51 1
    53   24   25 ar
    54   24   52 1
    55   25   26 ar
    56   25   27 1
    57   26   56 1
    58   27   53 1
    59   27   54 1
@<TRIPOS>MOLECULE
CHEMBL41343__1
   55    58     0     0     0
SMALL
USER_CHARGES

@<TRIPOS>ATOM
      1 C1          0.5754    1.2058   -0.2307 C.3       1 <0>        -0.0545
      2 N1          0.3305   -0.2421   -0.1905 N.4       1 <0>        -0.3869
      3 C2          1.0746   -0.8337    0.9294 C.3       1 <0>        -0.0520
      4 C3         -1.1060   -0.4909   -0.0098 C.3       1 <0>         0.0348
      5 C4         -1.3611   -1.9989    0.0320 C.3       1 <0>        -0.1398
      6 C5         -2.8572   -2.2581    0.2202 C.3       1 <0>        -0.1158
      7 C6         -3.6322   -1.6419   -0.9463 C.3       1 <0>        -0.1258
      8 C7         -3.3771   -0.1339   -0.9881 C.3       1 <0>        -0.1440
      9 C8         -1.8810    0.1253   -1.1763 C.3       1 <0>         0.0651
     10 O1         -1.4457   -0.4656   -2.4024 O.3       1 <0>        -0.3090
     11 C9         -1.6126    0.2669   -3.5328 C.ar      1 <0>         0.1321
     12 C10        -2.2807    1.4715   -3.4831 C.ar      1 <0>        -0.2093
     13 C11        -2.4619    2.2348   -4.6282 C.ar      1 <0>        -0.0639
     14 C12        -1.9750    1.8041   -5.8509 C.ar      1 <0>        -0.0415
     15 C13        -1.2842    0.5710   -5.9324 C.ar      1 <0>         0.0032
     16 C14        -1.0977   -0.2000   -4.7602 C.ar      1 <0>        -0.0618
     17 C15        -0.4080   -1.4206   -4.8416 C.ar      1 <0>        -0.1044
     18 C16         0.0762   -1.8426   -6.0423 C.ar      1 <0>        -0.1102
     19 C17        -0.1026   -1.0803   -7.1943 C.ar      1 <0>        -0.1062
     20 C18        -0.7771    0.1026   -7.1533 C.ar      1 <0>        -0.0912
     21 C19        -2.1758    2.6270   -7.0643 C.ar      1 <0>         0.2079
     22 C20        -1.8713    3.9867   -7.0347 C.ar      1 <0>        -0.2170
     23 C21        -2.0626    4.7476   -8.1764 C.ar      1 <0>        -0.0288
     24 C22        -2.5526    4.1264   -9.3133 C.ar      1 <0>        -0.2337
     25 C23        -2.8370    2.7647   -9.2772 C.ar      1 <0>         0.4092
     26 N2         -2.6396    2.0617   -8.1739 N.ar      1 <0>        -0.5347
     27 N3         -3.3294    2.1351  -10.4144 N.pl3     1 <0>        -0.8495
     28 H1          1.6412    1.3904   -0.3647 H         1 <0>         0.1288
     29 H2          0.0233    1.6448   -1.0617 H         1 <0>         0.1197
     30 H3          0.2434    1.6565    0.7046 H         1 <0>         0.1251
     31 H4          2.1404   -0.6491    0.7954 H         1 <0>         0.1265
     32 H5          0.7426   -0.3830    1.8647 H         1 <0>         0.1235
     33 H6          0.8928   -1.9080    0.9592 H         1 <0>         0.1265
     34 H7         -1.4380   -0.0402    0.9254 H         1 <0>         0.1528
     35 H8         -1.0291   -2.4496   -0.9033 H         1 <0>         0.0952
     36 H9         -0.8089   -2.4379    0.8630 H         1 <0>         0.0906
     37 H10        -3.0389   -3.3324    0.2500 H         1 <0>         0.0872
     38 H11        -3.1892   -1.8073    1.1554 H         1 <0>         0.0740
     39 H12        -3.3002   -2.0926   -1.8815 H         1 <0>         0.0776
     40 H13        -4.6980   -1.8265   -0.8122 H         1 <0>         0.0807
     41 H14        -3.9292    0.3051   -1.8191 H         1 <0>         0.0922
     42 H15        -3.7091    0.3169   -0.0528 H         1 <0>         0.0892
     43 H16        -1.6993    1.1996   -1.2061 H         1 <0>         0.0983
     44 H17        -2.6690    1.8262   -2.5398 H         1 <0>         0.1322
     45 H18        -2.9890    3.1753   -4.5649 H         1 <0>         0.1342
     46 H19        -0.2619   -2.0215   -3.9561 H         1 <0>         0.1267
     47 H20         0.6065   -2.7815   -6.1022 H         1 <0>         0.1274
     48 H21         0.2911   -1.4364   -8.1348 H         1 <0>         0.1282
     49 H22        -0.9095    0.6831   -8.0543 H         1 <0>         0.1390
     50 H23        -1.4909    4.4419   -6.1322 H         1 <0>         0.1321
     51 H24        -1.8348    5.8033   -8.1798 H         1 <0>         0.1383
     52 H25        -2.7126    4.6932  -10.2186 H         1 <0>         0.1344
     53 H26        -3.4730    2.6447  -11.2272 H         1 <0>         0.4115
     54 H27        -3.5295    1.1862  -10.3952 H         1 <0>         0.4053
     55 H28         0.6378   -0.6593   -1.0563 H         1 <0>         0.4305
@<TRIPOS>BOND
     1    1    2 1
     2    1   28 1
     3    1   29 1
     4    1   30 1
     5    2    3 1
     6    2    4 1
     7    2   55 1
     8    3   31 1
     9    3   32 1
    10    3   33 1
    11    4    9 1
    12    4    5 1
    13    4   34 1
    14    5    6 1
    15    5   35 1
    16    5   36 1
    17    6    7 1
    18    6   37 1
    19    6   38 1
    20    7    8 1
    21    7   39 1
    22    7   40 1
    23    8    9 1
    24    8   41 1
    25    8   42 1
    26    9   10 1
    27    9   43 1
    28   10   11 1
    29   11   16 ar
    30   11   12 ar
    31   12   13 ar
    32   12   44 1
    33   13   14 ar
    34   13   45 1
    35   14   15 ar
    36   14   21 1
    37   15   20 ar
    38   15   16 ar
    39   16   17 ar
    40   17   18 ar
    41   17   46 1
    42   18   19 ar
    43   18   47 1
    44   19   20 ar
    45   19   48 1
    46   20   49 1
    47   21   26 ar
    48   21   22 ar
    49   22   23 ar
    50   22   50 1
    51   23   24 ar
    52   23   51 1
    53   24   25 ar
    54   24   52 1
    55   25   26 ar
    56   25   27 1
    57   27   53 1
    58   27   54 1
@<TRIPOS>MOLECULE
CHEMBL41343__2
   56    59     0     0     0
SMALL
USER_CHARGES

@<TRIPOS>ATOM
      1 C1          0.5128   -0.1956    1.4446 C.3       1 <0>        -0.0529
      2 N1         -0.0339    0.0599    0.1053 N.4       1 <0>        -0.3863
      3 C2          0.8798   -0.4836   -0.9084 C.3       1 <0>        -0.0608
      4 C3         -1.3460   -0.5887   -0.0199 C.3       1 <0>         0.0338
      5 C4         -1.1711   -2.1078    0.0333 C.3       1 <0>        -0.1415
      6 C5         -2.5377   -2.7833   -0.0972 C.3       1 <0>        -0.1232
      7 C6         -3.1759   -2.3898   -1.4309 C.3       1 <0>        -0.1268
      8 C7         -3.3508   -0.8708   -1.4841 C.3       1 <0>        -0.1437
      9 C8         -1.9842   -0.1952   -1.3536 C.3       1 <0>         0.0634
     10 O1         -2.1475    1.2236   -1.4033 O.3       1 <0>        -0.3087
     11 C9         -2.2389    1.7906   -2.6331 C.ar      1 <0>         0.1900
     12 C10        -2.1189    1.0114   -3.7637 C.ar      1 <0>        -0.2335
     13 C11        -2.2091    1.5727   -5.0301 C.ar      1 <0>        -0.0269
     14 C12        -2.4222    2.9318   -5.1889 C.ar      1 <0>        -0.1318
     15 C13        -2.5498    3.7570   -4.0457 C.ar      1 <0>         0.0219
     16 C14        -2.4628    3.1777   -2.7571 C.ar      1 <0>        -0.0715
     17 C15        -2.5945    3.9966   -1.6239 C.ar      1 <0>        -0.0799
     18 C16        -2.8096    5.3323   -1.7786 C.ar      1 <0>        -0.1106
     19 C17        -2.9013    5.9005   -3.0471 C.ar      1 <0>        -0.0630
     20 C18        -2.7662    5.1373   -4.1674 C.ar      1 <0>        -0.1502
     21 C19        -2.5153    3.5177   -6.5446 C.ar      1 <0>         0.2357
     22 C20        -3.4549    4.5141   -6.8031 C.ar      1 <0>        -0.1673
     23 C21        -3.5333    5.0560   -8.0756 C.ar      1 <0>         0.0417
     24 C22        -2.6700    4.5855   -9.0513 C.ar      1 <0>        -0.1954
     25 C23        -1.7545    3.5886   -8.7285 C.ar      1 <0>         0.4576
     26 N2         -1.6988    3.0929   -7.5030 N.ar      1 <0>        -0.5063
     27 N3         -0.8857    3.1116   -9.7029 N.pl3     1 <0>        -0.8193
     28 H1          1.5027    0.2536    1.5248 H         1 <0>         0.1296
     29 H2         -0.1461    0.2407    2.1953 H         1 <0>         0.1275
     30 H3          0.5875   -1.2708    1.6075 H         1 <0>         0.1268
     31 H4          1.8534   -0.0024   -0.8155 H         1 <0>         0.1309
     32 H5          0.9898   -1.5578   -0.7598 H         1 <0>         0.1311
     33 H6          0.4742   -0.2940   -1.9022 H         1 <0>         0.1148
     34 H7         -1.9895   -0.2681    0.7994 H         1 <0>         0.1523
     35 H8         -0.5277   -2.4283   -0.7860 H         1 <0>         0.0929
     36 H9         -0.7165   -2.3881    0.9834 H         1 <0>         0.1027
     37 H10        -2.4131   -3.8655   -0.0593 H         1 <0>         0.0944
     38 H11        -3.1812   -2.4627    0.7221 H         1 <0>         0.0816
     39 H12        -2.5324   -2.7104   -2.2502 H         1 <0>         0.0724
     40 H13        -4.1495   -2.8711   -1.5238 H         1 <0>         0.0913
     41 H14        -3.8054   -0.5904   -2.4343 H         1 <0>         0.0904
     42 H15        -3.9942   -0.5502   -0.6648 H         1 <0>         0.0923
     43 H16        -1.3407   -0.5158   -2.1730 H         1 <0>         0.1007
     44 H17        -1.9520   -0.0508   -3.6629 H         1 <0>         0.1439
     45 H18        -2.1115    0.9423   -5.9015 H         1 <0>         0.1344
     46 H19        -2.5259    3.5691   -0.6345 H         1 <0>         0.1387
     47 H20        -2.9110    5.9599   -0.9056 H         1 <0>         0.1403
     48 H21        -3.0727    6.9624   -3.1437 H         1 <0>         0.1415
     49 H22        -2.8383    5.5910   -5.1448 H         1 <0>         0.1435
     50 H23        -4.1144    4.8595   -6.0207 H         1 <0>         0.1849
     51 H24        -4.2527    5.8290   -8.3022 H         1 <0>         0.1812
     52 H25        -2.7074    4.9881  -10.0528 H         1 <0>         0.1843
     53 H26        -0.9197    3.4735  -10.6022 H         1 <0>         0.4437
     54 H27        -0.2454    2.4167   -9.4836 H         1 <0>         0.4210
     55 H28        -0.1358    1.0543   -0.0323 H         1 <0>         0.4300
     56 H29        -1.0495    2.4013   -7.3004 H         1 <0>         0.4366
@<TRIPOS>BOND
     1    1    2 1
     2    1   28 1
     3    1   29 1
     4    1   30 1
     5    2    3 1
     6    2    4 1
     7    2   55 1
     8    3   31 1
     9    3   32 1
    10    3   33 1
    11    4    9 1
    12    4    5 1
    13    4   34 1
    14    5    6 1
    15    5   35 1
    16    5   36 1
    17    6    7 1
    18    6   37 1
    19    6   38 1
    20    7    8 1
    21    7   39 1
    22    7   40 1
    23    8    9 1
    24    8   41 1
    25    8   42 1
    26    9   10 1
    27    9   43 1
    28   10   11 1
    29   11   16 ar
    30   11   12 ar
    31   12   13 ar
    32   12   44 1
    33   13   14 ar
    34   13   45 1
    35   14   15 ar
    36   14   21 1
    37   15   20 ar
    38   15   16 ar
    39   16   17 ar
    40   17   18 ar
    41   17   46 1
    42   18   19 ar
    43   18   47 1
    44   19   20 ar
    45   19   48 1
    46   20   49 1
    47   21   26 ar
    48   21   22 ar
    49   22   23 ar
    50   22   50 1
    51   23   24 ar
    52   23   51 1
    53   24   25 ar
    54   24   52 1
    55   25   26 ar
    56   25   27 1
    57   26   56 1
    58   27   53 1
    59   27   54 1
@<TRIPOS>MOLECULE
CHEMBL41343__3
   55    58     0     0     0
SMALL
USER_CHARGES

@<TRIPOS>ATOM
      1 C1          0.5064   -0.2518    1.4206 C.3       1 <0>        -0.0510
      2 N1         -0.0476    0.0141    0.0862 N.4       1 <0>        -0.3857
      3 C2          0.8434   -0.5517   -0.9355 C.3       1 <0>        -0.0603
      4 C3         -1.3753   -0.6047   -0.0249 C.3       1 <0>         0.0345
      5 C4         -1.2345   -2.1273    0.0291 C.3       1 <0>        -0.1406
      6 C5         -2.6172   -2.7718   -0.0867 C.3       1 <0>        -0.1208
      7 C6         -3.2596   -2.3658   -1.4146 C.3       1 <0>        -0.1269
      8 C7         -3.4004   -0.8433   -1.4687 C.3       1 <0>        -0.1430
      9 C8         -2.0176   -0.1988   -1.3529 C.3       1 <0>         0.0651
     10 O1         -2.1491    1.2232   -1.4034 O.3       1 <0>        -0.3157
     11 C9         -2.2398    1.7904   -2.6331 C.ar      1 <0>         0.1328
     12 C10        -2.1487    1.0071   -3.7636 C.ar      1 <0>        -0.2094
     13 C11        -2.2385    1.5684   -5.0299 C.ar      1 <0>        -0.0644
     14 C12        -2.4222    2.9318   -5.1889 C.ar      1 <0>        -0.0405
     15 C13        -2.5197    3.7613   -4.0458 C.ar      1 <0>         0.0032
     16 C14        -2.4332    3.1821   -2.7572 C.ar      1 <0>        -0.0618
     17 C15        -2.5351    4.0055   -1.6241 C.ar      1 <0>        -0.1036
     18 C16        -2.7213    5.3454   -1.7790 C.ar      1 <0>        -0.1102
     19 C17        -2.8125    5.9137   -3.0475 C.ar      1 <0>        -0.1054
     20 C18        -2.7059    5.1460   -4.1678 C.ar      1 <0>        -0.0919
     21 C19        -2.5153    3.5177   -6.5446 C.ar      1 <0>         0.2072
     22 C20        -3.3693    2.9467   -7.4865 C.ar      1 <0>        -0.2155
     23 C21        -3.4491    3.5035   -8.7524 C.ar      1 <0>        -0.0285
     24 C22        -2.6729    4.6144   -9.0387 C.ar      1 <0>        -0.2333
     25 C23        -1.8403    5.1365   -8.0536 C.ar      1 <0>         0.4083
     26 N2         -1.7882    4.5868   -6.8512 N.ar      1 <0>        -0.5352
     27 N3         -1.0584    6.2508   -8.3343 N.pl3     1 <0>        -0.8499
     28 H1          1.5069    0.1751    1.4902 H         1 <0>         0.1269
     29 H2         -0.1350    0.2005    2.1770 H         1 <0>         0.1249
     30 H3          0.5583   -1.3281    1.5846 H         1 <0>         0.1241
     31 H4          1.8285   -0.0925   -0.8530 H         1 <0>         0.1288
     32 H5          0.9305   -1.6279   -0.7860 H         1 <0>         0.1282
     33 H6          0.4324   -0.3545   -1.9256 H         1 <0>         0.1194
     34 H7         -2.0031   -0.2684    0.8002 H         1 <0>         0.1484
     35 H8         -0.6066   -2.4636   -0.7960 H         1 <0>         0.0924
     36 H9         -0.7769   -2.4165    0.9752 H         1 <0>         0.0980
     37 H10        -2.5169   -3.8565   -0.0482 H         1 <0>         0.0903
     38 H11        -3.2451   -2.4355    0.7384 H         1 <0>         0.0787
     39 H12        -2.6317   -2.7022   -2.2397 H         1 <0>         0.0725
     40 H13        -4.2447   -2.8250   -1.4971 H         1 <0>         0.0875
     41 H14        -3.8580   -0.5541   -2.4147 H         1 <0>         0.0924
     42 H15        -4.0282   -0.5070   -0.6436 H         1 <0>         0.0876
     43 H16        -1.3898   -0.5351   -2.1780 H         1 <0>         0.0979
     44 H17        -2.0050   -0.0585   -3.6626 H         1 <0>         0.1315
     45 H18        -2.1639    0.9347   -5.9012 H         1 <0>         0.1344
     46 H19        -2.4665    3.5779   -0.6347 H         1 <0>         0.1278
     47 H20        -2.7997    5.9765   -0.9061 H         1 <0>         0.1279
     48 H21        -2.9606    6.9791   -3.1442 H         1 <0>         0.1285
     49 H22        -2.7773    5.5999   -5.1452 H         1 <0>         0.1391
     50 H23        -3.9616    2.0800   -7.2325 H         1 <0>         0.1331
     51 H24        -4.1027    3.0800   -9.5006 H         1 <0>         0.1387
     52 H25        -2.7132    5.0705  -10.0168 H         1 <0>         0.1344
     53 H26        -1.0949    6.6601   -9.2129 H         1 <0>         0.4114
     54 H27        -0.4761    6.6192   -7.6515 H         1 <0>         0.4048
     55 H28        -0.1282    1.0103   -0.0521 H         1 <0>         0.4327
@<TRIPOS>BOND
     1    1    2 1
     2    1   28 1
     3    1   29 1
     4    1   30 1
     5    2    3 1
     6    2    4 1
     7    2   55 1
     8    3   31 1
     9    3   32 1
    10    3   33 1
    11    4    9 1
    12    4    5 1
    13    4   34 1
    14    5    6 1
    15    5   35 1
    16    5   36 1
    17    6    7 1
    18    6   37 1
    19    6   38 1
    20    7    8 1
    21    7   39 1
    22    7   40 1
    23    8    9 1
    24    8   41 1
    25    8   42 1
    26    9   10 1
    27    9   43 1
    28   10   11 1
    29   11   16 ar
    30   11   12 ar
    31   12   13 ar
    32   12   44 1
    33   13   14 ar
    34   13   45 1
    35   14   15 ar
    36   14   21 1
    37   15   20 ar
    38   15   16 ar
    39   16   17 ar
    40   17   18 ar
    41   17   46 1
    42   18   19 ar
    43   18   47 1
    44   19   20 ar
    45   19   48 1
    46   20   49 1
    47   21   26 ar
    48   21   22 ar
    49   22   23 ar
    50   22   50 1
    51   23   24 ar
    52   23   51 1
    53   24   25 ar
    54   24   52 1
    55   25   26 ar
    56   25   27 1
    57   27   53 1
    58   27   54 1
@<TRIPOS>MOLECULE
CHEMBL41343__4
   56    59     0     0     0
SMALL
USER_CHARGES

@<TRIPOS>ATOM
      1 C1          0.5374   -0.0257   -0.8741 C.3       1 <0>        -0.0608
      2 N1         -0.2499    0.1854    0.3481 N.4       1 <0>        -0.3864
      3 C2         -0.4709    1.6242    0.5458 C.3       1 <0>        -0.0520
      4 C3         -1.5450   -0.4960    0.2202 C.3       1 <0>         0.0334
      5 C4         -2.2460   -0.0235   -1.0551 C.3       1 <0>        -0.1415
      6 C5         -3.5949   -0.7332   -1.1884 C.3       1 <0>        -0.1231
      7 C6         -3.3710   -2.2450   -1.2597 C.3       1 <0>        -0.1272
      8 C7         -2.6699   -2.7174    0.0155 C.3       1 <0>        -0.1442
      9 C8         -1.3210   -2.0078    0.1488 C.3       1 <0>         0.0638
     10 O1         -0.6663   -2.4490    1.3399 O.3       1 <0>        -0.3082
     11 C9          0.0563   -3.5950    1.2574 C.ar      1 <0>         0.1883
     12 C10         0.0399   -4.3401    0.0979 C.ar      1 <0>        -0.2319
     13 C11         0.7717   -5.5150   -0.0058 C.ar      1 <0>        -0.0271
     14 C12         1.5376   -5.9684    1.0551 C.ar      1 <0>        -0.1319
     15 C13         1.5741   -5.2236    2.2586 C.ar      1 <0>         0.0219
     16 C14         0.8303   -4.0234    2.3560 C.ar      1 <0>        -0.0718
     17 C15         0.8713   -3.2830    3.5487 C.ar      1 <0>        -0.0814
     18 C16         1.6285   -3.7247    4.5907 C.ar      1 <0>        -0.1101
     19 C17         2.3650   -4.9029    4.4917 C.ar      1 <0>        -0.0637
     20 C18         2.3384   -5.6515    3.3539 C.ar      1 <0>        -0.1494
     21 C19         2.3124   -7.2231    0.9318 C.ar      1 <0>         0.2362
     22 C20         3.5921   -7.3011    1.4786 C.ar      1 <0>        -0.1686
     23 C21         4.3084   -8.4806    1.3578 C.ar      1 <0>         0.0410
     24 C22         3.7239   -9.5467    0.6942 C.ar      1 <0>        -0.1955
     25 C23         2.4425   -9.4042    0.1709 C.ar      1 <0>         0.4584
     26 N2          1.7797   -8.2671    0.3057 N.ar      1 <0>        -0.5064
     27 N3          1.8503  -10.4699   -0.4966 N.pl3     1 <0>        -0.8186
     28 H1          1.4983    0.4799   -0.7791 H         1 <0>         0.1315
     29 H2          0.7014   -1.0932   -1.0208 H         1 <0>         0.1153
     30 H3         -0.0035    0.3797   -1.7292 H         1 <0>         0.1309
     31 H4          0.4818    2.1138    0.7474 H         1 <0>         0.1297
     32 H5         -0.9154    2.0504   -0.3536 H         1 <0>         0.1266
     33 H6         -1.1432    1.7758    1.3902 H         1 <0>         0.1271
     34 H7         -2.1661   -0.2610    1.0845 H         1 <0>         0.1519
     35 H8         -2.4056    1.0536   -1.0043 H         1 <0>         0.1028
     36 H9         -1.6249   -0.2584   -1.9195 H         1 <0>         0.0930
     37 H10        -4.2160   -0.4983   -0.3240 H         1 <0>         0.0813
     38 H11        -4.0943   -0.3966   -2.0969 H         1 <0>         0.0944
     39 H12        -4.3319   -2.7506   -1.3546 H         1 <0>         0.0908
     40 H13        -2.7499   -2.4799   -2.1241 H         1 <0>         0.0726
     41 H14        -3.2910   -2.4825    0.8799 H         1 <0>         0.0923
     42 H15        -2.5104   -3.7945   -0.0353 H         1 <0>         0.0900
     43 H16        -0.6999   -2.2427   -0.7156 H         1 <0>         0.1013
     44 H17        -0.5510   -4.0052   -0.7418 H         1 <0>         0.1450
     45 H18         0.7431   -6.0824   -0.9243 H         1 <0>         0.1346
     46 H19         0.3054   -2.3676    3.6388 H         1 <0>         0.1380
     47 H20         1.6586   -3.1534    5.5067 H         1 <0>         0.1402
     48 H21         2.9582   -5.2321    5.3320 H         1 <0>         0.1415
     49 H22         2.9134   -6.5636    3.2911 H         1 <0>         0.1436
     50 H23         4.0203   -6.4517    1.9901 H         1 <0>         0.1843
     51 H24         5.3020   -8.5670    1.7722 H         1 <0>         0.1808
     52 H25         4.2576  -10.4791    0.5836 H         1 <0>         0.1843
     53 H26         2.3300  -11.3071   -0.5956 H         1 <0>         0.4437
     54 H27         0.9572  -10.3764   -0.8635 H         1 <0>         0.4217
     55 H28         0.2508   -0.1898    1.1397 H         1 <0>         0.4299
     56 H29         0.8860   -8.1926   -0.0640 H         1 <0>         0.4375
@<TRIPOS>BOND
     1    1    2 1
     2    1   28 1
     3    1   29 1
     4    1   30 1
     5    2    3 1
     6    2    4 1
     7    2   55 1
     8    3   31 1
     9    3   32 1
    10    3   33 1
    11    4    9 1
    12    4    5 1
    13    4   34 1
    14    5    6 1
    15    5   35 1
    16    5   36 1
    17    6    7 1
    18    6   37 1
    19    6   38 1
    20    7    8 1
    21    7   39 1
    22    7   40 1
    23    8    9 1
    24    8   41 1
    25    8   42 1
    26    9   10 1
    27    9   43 1
    28   10   11 1
    29   11   16 ar
    30   11   12 ar
    31   12   13 ar
    32   12   44 1
    33   13   14 ar
    34   13   45 1
    35   14   15 ar
    36   14   21 1
    37   15   20 ar
    38   15   16 ar
    39   16   17 ar
    40   17   18 ar
    41   17   46 1
    42   18   19 ar
    43   18   47 1
    44   19   20 ar
    45   19   48 1
    46   20   49 1
    47   21   26 ar
    48   21   22 ar
    49   22   23 ar
    50   22   50 1
    51   23   24 ar
    52   23   51 1
    53   24   25 ar
    54   24   52 1
    55   25   26 ar
    56   25   27 1
    57   26   56 1
    58   27   53 1
    59   27   54 1
@<TRIPOS>MOLECULE
CHEMBL41343__5
   55    58     0     0     0
SMALL
USER_CHARGES

@<TRIPOS>ATOM
      1 C1          0.6272    0.0049   -0.8404 C.3       1 <0>        -0.0602
      2 N1         -0.1876    0.2099    0.3646 N.4       1 <0>        -0.3857
      3 C2         -0.4015    1.6483    0.5723 C.3       1 <0>        -0.0503
      4 C3         -1.4849   -0.4590    0.1981 C.3       1 <0>         0.0339
      5 C4         -2.1511    0.0333   -1.0882 C.3       1 <0>        -0.1401
      6 C5         -3.5022   -0.6633   -1.2616 C.3       1 <0>        -0.1208
      7 C6         -3.2891   -2.1761   -1.3444 C.3       1 <0>        -0.1272
      8 C7         -2.6228   -2.6684   -0.0581 C.3       1 <0>        -0.1445
      9 C8         -1.2717   -1.9718    0.1153 C.3       1 <0>         0.0663
     10 O1         -0.6494   -2.4316    1.3167 O.3       1 <0>        -0.3153
     11 C9          0.0637   -3.5838    1.2393 C.ar      1 <0>         0.1313
     12 C10         0.0679   -4.3165    0.0718 C.ar      1 <0>        -0.2079
     13 C11         0.7905   -5.4975   -0.0269 C.ar      1 <0>        -0.0643
     14 C12         1.5262   -5.9696    1.0471 C.ar      1 <0>        -0.0407
     15 C13         1.5410   -5.2380    2.2590 C.ar      1 <0>         0.0029
     16 C14         0.8068   -4.0314    2.3515 C.ar      1 <0>        -0.0620
     17 C15         0.8263   -3.3041    3.5527 C.ar      1 <0>        -0.1051
     18 C16         1.5538   -3.7643    4.6077 C.ar      1 <0>        -0.1097
     19 C17         2.2809   -4.9486    4.5138 C.ar      1 <0>        -0.1062
     20 C18         2.2745   -5.6850    3.3677 C.ar      1 <0>        -0.0910
     21 C19         2.2914   -7.2307    0.9290 C.ar      1 <0>         0.2079
     22 C20         3.1199   -7.4351   -0.1730 C.ar      1 <0>        -0.2169
     23 C21         3.8321   -8.6190   -0.2733 C.ar      1 <0>        -0.0287
     24 C22         3.6946   -9.5631    0.7309 C.ar      1 <0>        -0.2336
     25 C23         2.8509   -9.2977    1.8052 C.ar      1 <0>         0.4093
     26 N2          2.1867   -8.1557    1.8772 N.ar      1 <0>        -0.5347
     27 N3          2.7080  -10.2409    2.8161 N.pl3     1 <0>        -0.8494
     28 H1          1.5898    0.5012   -0.7168 H         1 <0>         0.1290
     29 H2          0.7859   -1.0624   -0.9945 H         1 <0>         0.1197
     30 H3          0.1106    0.4238   -1.7039 H         1 <0>         0.1281
     31 H4          0.5499    2.1275    0.8035 H         1 <0>         0.1269
     32 H5         -0.8191    2.0881   -0.3335 H         1 <0>         0.1240
     33 H6         -1.0939    1.7968    1.4009 H         1 <0>         0.1247
     34 H7         -2.1246   -0.2283    1.0499 H         1 <0>         0.1483
     35 H8         -2.3030    1.1111   -1.0292 H         1 <0>         0.0980
     36 H9         -1.5114   -0.1974   -1.9400 H         1 <0>         0.0921
     37 H10        -4.1420   -0.4326   -0.4098 H         1 <0>         0.0786
     38 H11        -3.9769   -0.3126   -2.1780 H         1 <0>         0.0903
     39 H12        -4.2517   -2.6724   -1.4680 H         1 <0>         0.0875
     40 H13        -2.6494   -2.4069   -2.1962 H         1 <0>         0.0726
     41 H14        -3.2626   -2.4377    0.7937 H         1 <0>         0.0879
     42 H15        -2.4710   -3.7462   -0.1171 H         1 <0>         0.0929
     43 H16        -0.6320   -2.2025   -0.7365 H         1 <0>         0.0978
     44 H17        -0.4993   -3.9668   -0.7782 H         1 <0>         0.1326
     45 H18         0.7785   -6.0549   -0.9519 H         1 <0>         0.1346
     46 H19         0.2673   -2.3840    3.6390 H         1 <0>         0.1271
     47 H20         1.5675   -3.2030    5.5303 H         1 <0>         0.1278
     48 H21         2.8505   -5.2927    5.3645 H         1 <0>         0.1285
     49 H22         2.8418   -6.6021    3.3089 H         1 <0>         0.1395
     50 H23         3.2054   -6.6795   -0.9399 H         1 <0>         0.1322
     51 H24         4.4807   -8.8024   -1.1172 H         1 <0>         0.1384
     52 H25         4.2366  -10.4959    0.6806 H         1 <0>         0.1345
     53 H26         3.1950  -11.0785    2.7704 H         1 <0>         0.4115
     54 H27         2.1212  -10.0614    3.5674 H         1 <0>         0.4054
     55 H28         0.2906   -0.1779    1.1640 H         1 <0>         0.4324
@<TRIPOS>BOND
     1    1    2 1
     2    1   28 1
     3    1   29 1
     4    1   30 1
     5    2    3 1
     6    2    4 1
     7    2   55 1
     8    3   31 1
     9    3   32 1
    10    3   33 1
    11    4    9 1
    12    4    5 1
    13    4   34 1
    14    5    6 1
    15    5   35 1
    16    5   36 1
    17    6    7 1
    18    6   37 1
    19    6   38 1
    20    7    8 1
    21    7   39 1
    22    7   40 1
    23    8    9 1
    24    8   41 1
    25    8   42 1
    26    9   10 1
    27    9   43 1
    28   10   11 1
    29   11   16 ar
    30   11   12 ar
    31   12   13 ar
    32   12   44 1
    33   13   14 ar
    34   13   45 1
    35   14   15 ar
    36   14   21 1
    37   15   20 ar
    38   15   16 ar
    39   16   17 ar
    40   17   18 ar
    41   17   46 1
    42   18   19 ar
    43   18   47 1
    44   19   20 ar
    45   19   48 1
    46   20   49 1
    47   21   26 ar
    48   21   22 ar
    49   22   23 ar
    50   22   50 1
    51   23   24 ar
    52   23   51 1
    53   24   25 ar
    54   24   52 1
    55   25   26 ar
    56   25   27 1
    57   27   53 1
    58   27   54 1
@<TRIPOS>MOLECULE
CHEMBL41343__6
   56    59     0     0     0
SMALL
USER_CHARGES

@<TRIPOS>ATOM
      1 C1         -0.5589    1.6098   -0.3621 C.3       1 <0>        -0.0538
      2 N1         -0.3192    0.1646   -0.2524 N.4       1 <0>        -0.3876
      3 C2          0.5188   -0.1049    0.9236 C.3       1 <0>        -0.0547
      4 C3         -1.6029   -0.5352   -0.1098 C.3       1 <0>         0.0339
      5 C4         -2.4756   -0.2545   -1.3347 C.3       1 <0>        -0.1412
      6 C5         -3.8126   -0.9834   -1.1861 C.3       1 <0>        -0.1185
      7 C6         -3.5630   -2.4886   -1.0719 C.3       1 <0>        -0.1265
      8 C7         -2.6902   -2.7693    0.1530 C.3       1 <0>        -0.1450
      9 C8         -1.3532   -2.0404    0.0044 C.3       1 <0>         0.0635
     10 O1         -0.6865   -2.5032   -1.1717 O.3       1 <0>        -0.3019
     11 C9          0.0561   -3.6333   -1.0547 C.ar      1 <0>         0.1889
     12 C10         0.0533   -4.3424    0.1273 C.ar      1 <0>        -0.2332
     13 C11         0.8063   -5.5001    0.2667 C.ar      1 <0>        -0.0267
     14 C12         1.5803   -5.9720   -0.7803 C.ar      1 <0>        -0.1326
     15 C13         1.6025   -5.2647   -2.0064 C.ar      1 <0>         0.0220
     16 C14         0.8279   -4.0880   -2.1442 C.ar      1 <0>        -0.0715
     17 C15         0.8469   -3.3901   -3.3627 C.ar      1 <0>        -0.0807
     18 C16         1.6032   -3.8560   -4.3947 C.ar      1 <0>        -0.1106
     19 C17         2.3604   -5.0174   -4.2602 C.ar      1 <0>        -0.0637
     20 C18         2.3743   -5.7122   -3.0886 C.ar      1 <0>        -0.1497
     21 C19         2.3793   -7.2070   -0.6182 C.ar      1 <0>         0.2358
     22 C20         2.4631   -8.1181   -1.6696 C.ar      1 <0>        -0.1675
     23 C21         3.2141   -9.2708   -1.5073 C.ar      1 <0>         0.0417
     24 C22         3.8587   -9.4780   -0.2989 C.ar      1 <0>        -0.1955
     25 C23         3.7348   -8.5292    0.7113 C.ar      1 <0>         0.4576
     26 N2          3.0146   -7.4347    0.5264 N.ar      1 <0>        -0.5063
     27 N3          4.3785   -8.7311    1.9265 N.pl3     1 <0>        -0.8193
     28 H1          0.3936    2.1291   -0.4680 H         1 <0>         0.1291
     29 H2         -1.1807    1.8098   -1.2347 H         1 <0>         0.1291
     30 H3         -1.0674    1.9629    0.5350 H         1 <0>         0.1263
     31 H4          1.4713    0.4144    0.8178 H         1 <0>         0.1308
     32 H5          0.0103    0.2482    1.8207 H         1 <0>         0.1280
     33 H6          0.6967   -1.1772    1.0050 H         1 <0>         0.1142
     34 H7         -2.1114   -0.1821    0.7873 H         1 <0>         0.1579
     35 H8         -2.6535    0.8178   -1.4160 H         1 <0>         0.0956
     36 H9         -1.9671   -0.6076   -2.2318 H         1 <0>         0.0946
     37 H10        -4.3212   -0.6303   -0.2890 H         1 <0>         0.0773
     38 H11        -4.4344   -0.7834   -2.0587 H         1 <0>         0.0914
     39 H12        -4.5155   -3.0078   -0.9660 H         1 <0>         0.0849
     40 H13        -3.0544   -2.8416   -1.9690 H         1 <0>         0.0760
     41 H14        -3.1987   -2.4162    1.0501 H         1 <0>         0.0957
     42 H15        -2.5123   -3.8416    0.2344 H         1 <0>         0.0905
     43 H16        -0.7314   -2.2403    0.8771 H         1 <0>         0.1010
     44 H17        -0.5430   -3.9922    0.9568 H         1 <0>         0.1447
     45 H18         0.7887   -6.0389    1.2025 H         1 <0>         0.1342
     46 H19         0.2643   -2.4884   -3.4807 H         1 <0>         0.1376
     47 H20         1.6159   -3.3177   -5.3309 H         1 <0>         0.1398
     48 H21         2.9519   -5.3669   -5.0935 H         1 <0>         0.1412
     49 H22         2.9668   -6.6106   -2.9976 H         1 <0>         0.1433
     50 H23         1.9484   -7.9279   -2.5998 H         1 <0>         0.1847
     51 H24         3.2951   -9.9930   -2.3063 H         1 <0>         0.1812
     52 H25         4.4512  -10.3673   -0.1423 H         1 <0>         0.1843
     53 H26         4.9106   -9.5299    2.0667 H         1 <0>         0.4437
     54 H27         4.2958   -8.0731    2.6344 H         1 <0>         0.4210
     55 H28         0.1516   -0.1622   -1.0829 H         1 <0>         0.4284
     56 H29         2.9461   -6.7855    1.2438 H         1 <0>         0.4365
@<TRIPOS>BOND
     1    1    2 1
     2    1   28 1
     3    1   29 1
     4    1   30 1
     5    2    3 1
     6    2    4 1
     7    2   55 1
     8    3   31 1
     9    3   32 1
    10    3   33 1
    11    4    9 1
    12    4    5 1
    13    4   34 1
    14    5    6 1
    15    5   35 1
    16    5   36 1
    17    6    7 1
    18    6   37 1
    19    6   38 1
    20    7    8 1
    21    7   39 1
    22    7   40 1
    23    8    9 1
    24    8   41 1
    25    8   42 1
    26    9   10 1
    27    9   43 1
    28   10   11 1
    29   11   16 ar
    30   11   12 ar
    31   12   13 ar
    32   12   44 1
    33   13   14 ar
    34   13   45 1
    35   14   15 ar
    36   14   21 1
    37   15   20 ar
    38   15   16 ar
    39   16   17 ar
    40   17   18 ar
    41   17   46 1
    42   18   19 ar
    43   18   47 1
    44   19   20 ar
    45   19   48 1
    46   20   49 1
    47   21   26 ar
    48   21   22 ar
    49   22   23 ar
    50   22   50 1
    51   23   24 ar
    52   23   51 1
    53   24   25 ar
    54   24   52 1
    55   25   26 ar
    56   25   27 1
    57   26   56 1
    58   27   53 1
    59   27   54 1
@<TRIPOS>MOLECULE
CHEMBL41343__7
   55    58     0     0     0
SMALL
USER_CHARGES

@<TRIPOS>ATOM
      1 C1         -0.5723    1.5929   -0.2838 C.3       1 <0>        -0.0519
      2 N1         -0.3386    0.1454   -0.1947 N.4       1 <0>        -0.3869
      3 C2          0.4683   -0.1479    0.9973 C.3       1 <0>        -0.0545
      4 C3         -1.6270   -0.5536   -0.0980 C.3       1 <0>         0.0346
      5 C4         -2.4674   -0.2482   -1.3395 C.3       1 <0>        -0.1398
      6 C5         -3.8093   -0.9762   -1.2388 C.3       1 <0>        -0.1159
      7 C6         -3.5659   -2.4839   -1.1460 C.3       1 <0>        -0.1257
      8 C7         -2.7255   -2.7893    0.0955 C.3       1 <0>        -0.1434
      9 C8         -1.3836   -2.0613   -0.0052 C.3       1 <0>         0.0647
     10 O1         -0.6878   -2.5042   -1.1722 O.3       1 <0>        -0.3088
     11 C9          0.0554   -3.6338   -1.0549 C.ar      1 <0>         0.1319
     12 C10         0.0295   -4.3592    0.1168 C.ar      1 <0>        -0.2094
     13 C11         0.7828   -5.5167    0.2563 C.ar      1 <0>        -0.0642
     14 C12         1.5803   -5.9720   -0.7803 C.ar      1 <0>        -0.0411
     15 C13         1.6265   -5.2477   -1.9958 C.ar      1 <0>         0.0032
     16 C14         0.8516   -4.0714   -2.1339 C.ar      1 <0>        -0.0617
     17 C15         0.8945   -3.3566   -3.3420 C.ar      1 <0>        -0.1042
     18 C16         1.6740   -3.8062   -4.3640 C.ar      1 <0>        -0.1102
     19 C17         2.4315   -4.9673   -4.2293 C.ar      1 <0>        -0.1061
     20 C18         2.4225   -5.6783   -3.0673 C.ar      1 <0>        -0.0913
     21 C19         2.3793   -7.2070   -0.6182 C.ar      1 <0>         0.2070
     22 C20         1.7749   -8.3602   -0.1207 C.ar      1 <0>        -0.2154
     23 C21         2.5319   -9.5109    0.0265 C.ar      1 <0>        -0.0284
     24 C22         3.8705   -9.4742   -0.3281 C.ar      1 <0>        -0.2333
     25 C23         4.4136   -8.2908   -0.8188 C.ar      1 <0>         0.4081
     26 N2          3.6651   -7.2081   -0.9535 N.ar      1 <0>        -0.5354
     27 N3          5.7561   -8.2470   -1.1760 N.pl3     1 <0>        -0.8500
     28 H1          0.3837    2.1116   -0.3555 H         1 <0>         0.1264
     29 H2         -1.1710    1.8105   -1.1682 H         1 <0>         0.1265
     30 H3         -1.1030    1.9307    0.6064 H         1 <0>         0.1234
     31 H4          1.4243    0.3707    0.9256 H         1 <0>         0.1288
     32 H5         -0.0625    0.1899    1.8874 H         1 <0>         0.1251
     33 H6          0.6417   -1.2220    1.0634 H         1 <0>         0.1196
     34 H7         -2.1577   -0.2158    0.7921 H         1 <0>         0.1527
     35 H8         -2.6408    0.8259   -1.4056 H         1 <0>         0.0906
     36 H9         -1.9367   -0.5860   -2.2296 H         1 <0>         0.0951
     37 H10        -4.3400   -0.6384   -0.3487 H         1 <0>         0.0740
     38 H11        -4.4080   -0.7586   -2.1233 H         1 <0>         0.0872
     39 H12        -4.5219   -3.0025   -1.0743 H         1 <0>         0.0807
     40 H13        -3.0352   -2.8217   -2.0361 H         1 <0>         0.0777
     41 H14        -3.2562   -2.4515    0.9856 H         1 <0>         0.0891
     42 H15        -2.5521   -3.8634    0.1616 H         1 <0>         0.0923
     43 H16        -0.7849   -2.2789    0.8793 H         1 <0>         0.0982
     44 H17        -0.5853   -4.0220    0.9382 H         1 <0>         0.1322
     45 H18         0.7468   -6.0684    1.1840 H         1 <0>         0.1341
     46 H19         0.3119   -2.4549   -3.4600 H         1 <0>         0.1268
     47 H20         1.7051   -3.2549   -5.2921 H         1 <0>         0.1274
     48 H21         3.0417   -5.3037   -5.0546 H         1 <0>         0.1282
     49 H22         3.0156   -6.5762   -2.9761 H         1 <0>         0.1390
     50 H23         0.7286   -8.3565    0.1472 H         1 <0>         0.1332
     51 H24         2.0879  -10.4176    0.4100 H         1 <0>         0.1388
     52 H25         4.4865  -10.3552   -0.2243 H         1 <0>         0.1344
     53 H26         6.3089   -9.0385   -1.0826 H         1 <0>         0.4114
     54 H27         6.1402   -7.4248   -1.5187 H         1 <0>         0.4047
     55 H28         0.1527   -0.1673   -1.0187 H         1 <0>         0.4305
@<TRIPOS>BOND
     1    1    2 1
     2    1   28 1
     3    1   29 1
     4    1   30 1
     5    2    3 1
     6    2    4 1
     7    2   55 1
     8    3   31 1
     9    3   32 1
    10    3   33 1
    11    4    9 1
    12    4    5 1
    13    4   34 1
    14    5    6 1
    15    5   35 1
    16    5   36 1
    17    6    7 1
    18    6   37 1
    19    6   38 1
    20    7    8 1
    21    7   39 1
    22    7   40 1
    23    8    9 1
    24    8   41 1
    25    8   42 1
    26    9   10 1
    27    9   43 1
    28   10   11 1
    29   11   16 ar
    30   11   12 ar
    31   12   13 ar
    32   12   44 1
    33   13   14 ar
    34   13   45 1
    35   14   15 ar
    36   14   21 1
    37   15   20 ar
    38   15   16 ar
    39   16   17 ar
    40   17   18 ar
    41   17   46 1
    42   18   19 ar
    43   18   47 1
    44   19   20 ar
    45   19   48 1
    46   20   49 1
    47   21   26 ar
    48   21   22 ar
    49   22   23 ar
    50   22   50 1
    51   23   24 ar
    52   23   51 1
    53   24   25 ar
    54   24   52 1
    55   25   26 ar
    56   25   27 1
    57   27   53 1
    58   27   54 1
@<TRIPOS>MOLECULE
CHEMBL416071
   59    62     0     0     0
SMALL
USER_CHARGES

@<TRIPOS>ATOM
      1 C1          0.4443    1.2369   -0.1771 C.3       1 <0>        -0.0465
      2 N1          0.3109   -0.2256   -0.1422 N.4       1 <0>        -0.3886
      3 C2         -1.1118   -0.5859   -0.0808 C.3       1 <0>        -0.0025
      4 C3         -1.2520   -2.1096   -0.0633 C.3       1 <0>         0.0257
      5 N2         -0.5411   -2.6508    1.1036 N.3       1 <0>        -0.5343
      6 C4          0.8799   -2.2770    1.0687 C.3       1 <0>         0.0184
      7 C5          1.0025   -0.7519    1.0419 C.3       1 <0>        -0.0012
      8 C6         -0.7000   -4.1088    1.1873 C.3       1 <0>         0.0545
      9 C7         -0.1660   -4.6036    2.5329 C.3       1 <0>         0.0553
     10 O1         -0.9708   -4.0744    3.5885 O.3       1 <0>        -0.2877
     11 C8         -0.6290   -4.4197    4.8571 C.ar      1 <0>         0.1711
     12 C9          0.4626   -5.2460    5.0723 C.ar      1 <0>        -0.2139
     13 C10         0.8123   -5.5999    6.3580 C.ar      1 <0>        -0.0237
     14 C11         0.0635   -5.1264    7.4312 C.ar      1 <0>        -0.1551
     15 C12        -1.0400   -4.2922    7.2123 C.ar      1 <0>        -0.0108
     16 C13        -1.3771   -3.9342    5.9300 C.ar      1 <0>        -0.0945
     17 C14        -2.5367   -3.0238    5.6203 C.3       1 <0>        -0.0718
     18 C15        -3.4856   -2.9367    6.8138 C.3       1 <0>        -0.1259
     19 C16        -2.6625   -2.5980    8.0623 C.3       1 <0>        -0.1200
     20 C17        -1.8122   -3.8206    8.4165 C.3       1 <0>        -0.0979
     21 C18         0.4360   -5.5077    8.8148 C.ar      1 <0>         0.2417
     22 C19         1.7661   -5.4266    9.2180 C.ar      1 <0>        -0.1617
     23 C20         2.1037   -5.7853   10.5133 C.ar      1 <0>         0.0410
     24 C21         1.0999   -6.2142   11.3654 C.ar      1 <0>        -0.1989
     25 C22        -0.2101   -6.2723   10.8999 C.ar      1 <0>         0.4553
     26 N3         -0.5029   -5.9181    9.6591 N.ar      1 <0>        -0.5079
     27 N4         -1.2229   -6.7022   11.7493 N.pl3     1 <0>        -0.8208
     28 H1          1.4999    1.5044   -0.2240 H         1 <0>         0.1255
     29 H2         -0.0690    1.6277   -1.0557 H         1 <0>         0.1266
     30 H3          0.0008    1.6638    0.7225 H         1 <0>         0.1233
     31 H4         -1.5531   -0.1700    0.8250 H         1 <0>         0.1380
     32 H5         -1.6264   -0.1836   -0.9534 H         1 <0>         0.1386
     33 H6         -2.3070   -2.3770   -0.0028 H         1 <0>         0.1261
     34 H7         -0.8230   -2.5247   -0.9753 H         1 <0>         0.0636
     35 H8          1.3803   -2.6666    1.9552 H         1 <0>         0.1196
     36 H9          1.3440   -2.6949    0.1754 H         1 <0>         0.0640
     37 H10         2.0554   -0.4727    1.0017 H         1 <0>         0.1366
     38 H11         0.5504   -0.3352    1.9420 H         1 <0>         0.1369
     39 H12        -1.7558   -4.3648    1.0990 H         1 <0>         0.1045
     40 H13        -0.1426   -4.5820    0.3789 H         1 <0>         0.0751
     41 H14        -0.2018   -5.6927    2.5598 H         1 <0>         0.0819
     42 H15         0.8642   -4.2707    2.6596 H         1 <0>         0.0696
     43 H16         1.0378   -5.6122    4.2347 H         1 <0>         0.1428
     44 H17         1.6632   -6.2420    6.5315 H         1 <0>         0.1427
     45 H18        -2.1594   -2.0279    5.3877 H         1 <0>         0.0810
     46 H19        -3.0785   -3.4125    4.7581 H         1 <0>         0.0850
     47 H20        -4.2252   -2.1554    6.6385 H         1 <0>         0.0799
     48 H21        -3.9881   -3.8938    6.9539 H         1 <0>         0.0684
     49 H22        -2.0201   -1.7416    7.8573 H         1 <0>         0.0760
     50 H23        -3.3313   -2.3658    8.8911 H         1 <0>         0.0791
     51 H24        -2.4535   -4.6276    8.7708 H         1 <0>         0.0743
     52 H25        -1.1133   -3.5447    9.2062 H         1 <0>         0.0778
     53 H26         2.5261   -5.0883    8.5292 H         1 <0>         0.1784
     54 H27         3.1281   -5.7318   10.8510 H         1 <0>         0.1784
     55 H28         1.3315   -6.5009   12.3806 H         1 <0>         0.1824
     56 H29        -1.0147   -6.9597   12.6610 H         1 <0>         0.4427
     57 H30        -2.1380   -6.7448   11.4303 H         1 <0>         0.4210
     58 H31         0.7218   -0.6206   -0.9747 H         1 <0>         0.4236
     59 H32        -1.4240   -5.9628    9.3583 H         1 <0>         0.4372
@<TRIPOS>BOND
     1    1    2 1
     2    1   28 1
     3    1   29 1
     4    1   30 1
     5    2    7 1
     6    2    3 1
     7    2   58 1
     8    3    4 1
     9    3   31 1
    10    3   32 1
    11    4    5 1
    12    4   33 1
    13    4   34 1
    14    5    6 1
    15    5    8 1
    16    6    7 1
    17    6   35 1
    18    6   36 1
    19    7   37 1
    20    7   38 1
    21    8    9 1
    22    8   39 1
    23    8   40 1
    24    9   10 1
    25    9   41 1
    26    9   42 1
    27   10   11 1
    28   11   16 ar
    29   11   12 ar
    30   12   13 ar
    31   12   43 1
    32   13   14 ar
    33   13   44 1
    34   14   15 ar
    35   14   21 1
    36   15   20 1
    37   15   16 ar
    38   16   17 1
    39   17   18 1
    40   17   45 1
    41   17   46 1
    42   18   19 1
    43   18   47 1
    44   18   48 1
    45   19   20 1
    46   19   49 1
    47   19   50 1
    48   20   51 1
    49   20   52 1
    50   21   26 ar
    51   21   22 ar
    52   22   23 ar
    53   22   53 1
    54   23   24 ar
    55   23   54 1
    56   24   25 ar
    57   24   55 1
    58   25   26 ar
    59   25   27 1
    60   26   59 1
    61   27   56 1
    62   27   57 1
@<TRIPOS>MOLECULE
CHEMBL416071__1
   58    61     0     0     0
SMALL
USER_CHARGES

@<TRIPOS>ATOM
      1 C1          0.5604    1.1684   -0.2272 C.3       1 <0>        -0.0458
      2 N1          0.3872   -0.2896   -0.1803 N.4       1 <0>        -0.3882
      3 C2         -1.0443   -0.6101   -0.1056 C.3       1 <0>        -0.0024
      4 C3         -1.2262   -2.1293   -0.0757 C.3       1 <0>         0.0262
      5 N2         -0.5215   -2.6813    1.0899 N.3       1 <0>        -0.5317
      6 C4          0.9089   -2.3470    1.0416 C.3       1 <0>         0.0193
      7 C5          1.0732   -0.8261    1.0025 C.3       1 <0>        -0.0015
      8 C6         -0.7197   -4.1337    1.1857 C.3       1 <0>         0.0571
      9 C7         -0.1891   -4.6332    2.5310 C.3       1 <0>         0.0588
     10 O1         -0.9710   -4.0744    3.5886 O.3       1 <0>        -0.2970
     11 C8         -0.6291   -4.4197    4.8571 C.ar      1 <0>         0.1335
     12 C9          0.4411   -5.2742    5.0704 C.ar      1 <0>        -0.2175
     13 C10         0.7908   -5.6282    6.3560 C.ar      1 <0>        -0.0569
     14 C11         0.0635   -5.1264    7.4312 C.ar      1 <0>        -0.0790
     15 C12        -1.0183   -4.2637    7.2143 C.ar      1 <0>         0.0009
     16 C13        -1.3554   -3.9061    5.9319 C.ar      1 <0>        -0.1083
     17 C14        -2.4918   -2.9663    5.6240 C.3       1 <0>        -0.0617
     18 C15        -3.4288   -2.8445    6.8239 C.3       1 <0>        -0.1227
     19 C16        -2.5872   -2.5194    8.0636 C.3       1 <0>        -0.1225
     20 C17        -1.7680   -3.7623    8.4207 C.3       1 <0>        -0.0740
     21 C18         0.4360   -5.5077    8.8148 C.ar      1 <0>         0.2183
     22 C19         1.7661   -5.4266    9.2180 C.ar      1 <0>        -0.2218
     23 C20         2.1037   -5.7853   10.5133 C.ar      1 <0>        -0.0301
     24 C21         1.0999   -6.2142   11.3654 C.ar      1 <0>        -0.2393
     25 C22        -0.2101   -6.2723   10.8999 C.ar      1 <0>         0.4082
     26 N3         -0.5029   -5.9181    9.6591 N.ar      1 <0>        -0.5335
     27 N4         -1.2229   -6.7022   11.7493 N.pl3     1 <0>        -0.8511
     28 H1          1.6226    1.4064   -0.2840 H         1 <0>         0.1241
     29 H2          0.0514    1.5667   -1.1049 H         1 <0>         0.1244
     30 H3          0.1358    1.6138    0.6724 H         1 <0>         0.1234
     31 H4         -1.4671   -0.1757    0.8003 H         1 <0>         0.1385
     32 H5         -1.5544   -0.2003   -0.9774 H         1 <0>         0.1361
     33 H6         -2.2876   -2.3672   -0.0053 H         1 <0>         0.1250
     34 H7         -0.8157   -2.5627   -0.9877 H         1 <0>         0.0604
     35 H8          1.4053   -2.7438    1.9272 H         1 <0>         0.1227
     36 H9          1.3546   -2.7840    0.1480 H         1 <0>         0.0612
     37 H10         2.1330   -0.5763    0.9523 H         1 <0>         0.1355
     38 H11         0.6396   -0.3906    1.9027 H         1 <0>         0.1385
     39 H12        -1.7828   -4.3613    1.1073 H         1 <0>         0.1021
     40 H13        -0.1817   -4.6280    0.3768 H         1 <0>         0.0691
     41 H14        -0.2546   -5.7207    2.5663 H         1 <0>         0.0758
     42 H15         0.8507   -4.3279    2.6475 H         1 <0>         0.0629
     43 H16         0.9995   -5.6621    4.2313 H         1 <0>         0.1274
     44 H17         1.6250   -6.2921    6.5280 H         1 <0>         0.1289
     45 H18        -2.0892   -1.9829    5.3812 H         1 <0>         0.0694
     46 H19        -3.0507   -3.3463    4.7688 H         1 <0>         0.0743
     47 H20        -4.1479   -2.0444    6.6483 H         1 <0>         0.0674
     48 H21        -3.9563   -3.7863    6.9749 H         1 <0>         0.0669
     49 H22        -1.9230   -1.6826    7.8475 H         1 <0>         0.0631
     50 H23        -3.2430   -2.2629    8.8957 H         1 <0>         0.0687
     51 H24        -2.4285   -4.5488    8.7858 H         1 <0>         0.0928
     52 H25        -1.0558   -3.5001    9.2030 H         1 <0>         0.0711
     53 H26         2.5261   -5.0883    8.5292 H         1 <0>         0.1301
     54 H27         3.1281   -5.7318   10.8510 H         1 <0>         0.1355
     55 H28         1.3315   -6.5009   12.3806 H         1 <0>         0.1317
     56 H29        -1.0147   -6.9597   12.6610 H         1 <0>         0.4099
     57 H30        -2.1380   -6.7448   11.4303 H         1 <0>         0.4043
     58 H31         0.7807   -0.7018   -1.0130 H         1 <0>         0.4219
@<TRIPOS>BOND
     1    1    2 1
     2    1   28 1
     3    1   29 1
     4    1   30 1
     5    2    7 1
     6    2    3 1
     7    2   58 1
     8    3    4 1
     9    3   31 1
    10    3   32 1
    11    4    5 1
    12    4   33 1
    13    4   34 1
    14    5    6 1
    15    5    8 1
    16    6    7 1
    17    6   35 1
    18    6   36 1
    19    7   37 1
    20    7   38 1
    21    8    9 1
    22    8   39 1
    23    8   40 1
    24    9   10 1
    25    9   41 1
    26    9   42 1
    27   10   11 1
    28   11   16 ar
    29   11   12 ar
    30   12   13 ar
    31   12   43 1
    32   13   14 ar
    33   13   44 1
    34   14   15 ar
    35   14   21 1
    36   15   20 1
    37   15   16 ar
    38   16   17 1
    39   17   18 1
    40   17   45 1
    41   17   46 1
    42   18   19 1
    43   18   47 1
    44   18   48 1
    45   19   20 1
    46   19   49 1
    47   19   50 1
    48   20   51 1
    49   20   52 1
    50   21   26 ar
    51   21   22 ar
    52   22   23 ar
    53   22   53 1
    54   23   24 ar
    55   23   54 1
    56   24   25 ar
    57   24   55 1
    58   25   26 ar
    59   25   27 1
    60   27   56 1
    61   27   57 1
@<TRIPOS>MOLECULE
CHEMBL552825
   31    32     0     0     0
SMALL
USER_CHARGES

@<TRIPOS>ATOM
      1 C1         -1.1259    0.8615   -0.0292 C.ar      1 <0>        -0.0725
      2 C2         -0.3165    1.7860   -0.6642 C.ar      1 <0>        -0.0748
      3 C3          0.9361    1.4164   -1.1182 C.ar      1 <0>        -0.1322
      4 C4          1.3830    0.1217   -0.9391 C.ar      1 <0>        -0.0884
      5 C5          0.5728   -0.8090   -0.3017 C.ar      1 <0>         0.0931
      6 C6         -0.6850   -0.4342    0.1536 C.ar      1 <0>        -0.1280
      7 N1          1.0219   -2.1202   -0.1192 N.pl3     1 <0>        -0.6118
      8 C7          0.7543   -2.7837    1.0625 C.cat     1 <0>         0.6425
      9 N2          0.1871   -2.1494    2.0539 N.pl3     1 <0>        -0.7265
     10 C8          1.1081   -4.2048    1.2047 C.2       1 <0>        -0.1289
     11 C9          1.4456   -4.8332    2.3658 C.2       1 <0>        -0.0589
     12 C10         1.7031   -6.1762    2.0390 C.2       1 <0>        -0.2201
     13 C11         1.5131   -6.3039    0.7089 C.2       1 <0>         0.0808
     14 O1          1.1494   -5.1139    0.2098 O.3       1 <0>        -0.1529
     15 C12         1.8145    2.4270   -1.8096 C.3       1 <0>         0.0420
     16 N3          2.6480    3.1139   -0.8139 N.4       1 <0>        -0.6373
     17 H1         -2.1020    1.1547    0.3282 H         1 <0>         0.1594
     18 H2         -0.6639    2.7987   -0.8062 H         1 <0>         0.1533
     19 H3          2.3613   -0.1665   -1.2945 H         1 <0>         0.1517
     20 H4         -1.3174   -1.1554    0.6499 H         1 <0>         0.1467
     21 H5          1.5214   -2.5641   -0.8223 H         1 <0>         0.4542
     22 H6         -0.0870   -2.6355    2.8473 H         1 <0>         0.4542
     23 H7          1.5045   -4.3860    3.3471 H         1 <0>         0.1768
     24 H8          1.9977   -6.9581    2.7232 H         1 <0>         0.1824
     25 H9          1.6305   -7.2150    0.1410 H         1 <0>         0.2375
     26 H10         2.4546    1.9189   -2.5310 H         1 <0>         0.1484
     27 H11         1.1914    3.1563   -2.3272 H         1 <0>         0.1523
     28 H12         2.0555    3.5842   -0.1462 H         1 <0>         0.4375
     29 H13         3.2248    2.4388   -0.3348 H         1 <0>         0.4344
     30 H14         3.2361    3.7906   -1.2769 H         1 <0>         0.4470
     31 H15         0.0400   -1.1923    1.9965 H         1 <0>         0.4380
@<TRIPOS>BOND
     1    1    6 ar
     2    1    2 ar
     3    1   17 1
     4    2    3 ar
     5    2   18 1
     6    3    4 ar
     7    3   15 1
     8    4    5 ar
     9    4   19 1
    10    5    6 ar
    11    5    7 1
    12    6   20 1
    13    7    8 1
    14    7   21 1
    15    8    9 2
    16    8   10 1
    17    9   22 1
    18    9   31 1
    19   10   14 1
    20   10   11 2
    21   11   12 1
    22   11   23 1
    23   12   13 2
    24   12   24 1
    25   13   14 1
    26   13   25 1
    27   15   16 1
    28   15   26 1
    29   15   27 1
    30   16   28 1
    31   16   29 1
    32   16   30 1
@<TRIPOS>MOLECULE
CHEMBL552825__1
   30    31     0     0     0
SMALL
USER_CHARGES

@<TRIPOS>ATOM
      1 C1         -0.1425    1.3265    0.3119 C.ar      1 <0>        -0.0892
      2 C2          1.0060    2.0811    0.1471 C.ar      1 <0>        -0.1214
      3 C3          2.2248    1.4613   -0.0641 C.ar      1 <0>        -0.1477
      4 C4          2.3034    0.0850   -0.1117 C.ar      1 <0>        -0.1094
      5 C5          1.1483   -0.6834    0.0538 C.ar      1 <0>         0.1377
      6 C6         -0.0793   -0.0503    0.2667 C.ar      1 <0>        -0.1429
      7 N1          1.2185   -2.0477    0.0074 N.2       1 <0>        -0.5719
      8 C7          0.4490   -2.7182   -0.8233 C.2       1 <0>         0.5230
      9 N2         -0.3425   -2.0421   -1.7286 N.pl3     1 <0>        -0.8573
     10 C8          0.4328   -4.1853   -0.7866 C.2       1 <0>        -0.0143
     11 C9         -0.3107   -4.9993   -1.5912 C.2       1 <0>        -0.1410
     12 C10        -0.0165   -6.3201   -1.2122 C.2       1 <0>        -0.2191
     13 C11         0.8817   -6.2538   -0.2063 C.2       1 <0>         0.0060
     14 O1          1.1543   -4.9651    0.0441 O.3       1 <0>        -0.1433
     15 C12         3.4695    2.2919   -0.2429 C.3       1 <0>         0.0484
     16 N3          4.0933    2.5274    1.0660 N.4       1 <0>        -0.6365
     17 H1         -1.0897    1.8170    0.4808 H         1 <0>         0.1358
     18 H2          0.9504    3.1591    0.1831 H         1 <0>         0.1311
     19 H3          3.2554   -0.3975   -0.2770 H         1 <0>         0.1337
     20 H4         -0.9762   -0.6379    0.3959 H         1 <0>         0.1318
     21 H5         -0.2564   -1.0807   -1.8249 H         1 <0>         0.4117
     22 H6         -0.9932   -4.6886   -2.3684 H         1 <0>         0.1586
     23 H7         -0.4311   -7.2190   -1.6440 H         1 <0>         0.1624
     24 H8          1.3126   -7.0995    0.3091 H         1 <0>         0.2168
     25 H9          4.1697    1.7626   -0.8892 H         1 <0>         0.1392
     26 H10         3.2066    3.2471   -0.6973 H         1 <0>         0.1407
     27 H11         3.4451    3.0173    1.6642 H         1 <0>         0.4348
     28 H12         4.3366    1.6431    1.4866 H         1 <0>         0.4358
     29 H13         4.9266    3.0835    0.9463 H         1 <0>         0.4374
     30 H14        -0.9851   -2.5280   -2.2688 H         1 <0>         0.4093
@<TRIPOS>BOND
     1    1    6 ar
     2    1    2 ar
     3    1   17 1
     4    2    3 ar
     5    2   18 1
     6    3    4 ar
     7    3   15 1
     8    4    5 ar
     9    4   19 1
    10    5    6 ar
    11    5    7 1
    12    6   20 1
    13    7    8 2
    14    8    9 1
    15    8   10 1
    16    9   21 1
    17    9   30 1
    18   10   14 1
    19   10   11 2
    20   11   12 1
    21   11   22 1
    22   12   13 2
    23   12   23 1
    24   13   14 1
    25   13   24 1
    26   15   16 1
    27   15   25 1
    28   15   26 1
    29   16   27 1
    30   16   28 1
    31   16   29 1
@<TRIPOS>MOLECULE
CHEMBL256620
   47    49     0     0     0
SMALL
USER_CHARGES

@<TRIPOS>ATOM
      1 C1         -0.0178    1.4648    0.0101 C.3       1 <0>         0.0057
      2 N1          0.0021   -0.0041    0.0020 N.3       1 <0>        -0.5227
      3 C2          0.7062   -0.5275    1.1802 C.3       1 <0>         0.0868
      4 C3         -0.0734   -0.1864    2.4240 C.ar      1 <0>        -0.0324
      5 C4          0.3019    0.8891    3.2016 C.ar      1 <0>        -0.1060
      6 C5         -0.4135    1.2038    4.3448 C.ar      1 <0>        -0.0090
      7 C6         -1.5099    0.4421    4.7145 C.ar      1 <0>        -0.1027
      8 C7         -1.8954   -0.6352    3.9453 C.ar      1 <0>        -0.0563
      9 C8         -1.1809   -0.9550    2.7884 C.ar      1 <0>        -0.0021
     10 C9         -1.5794   -2.0693    1.9822 C.1       1 <0>         0.2546
     11 N2         -1.8955   -2.9533    1.3426 N.1       1 <0>        -0.4021
     12 Cl1         0.0660    2.5584    5.3189 Cl        1 <0>        -0.0468
     13 C10         0.5996   -0.5156   -1.2387 C.3       1 <0>         0.0749
     14 C11         2.0257    0.0239   -1.3806 C.3       1 <0>        -0.1875
     15 C12         2.6134   -0.4478   -2.7124 C.3       1 <0>        -0.0005
     16 N3          1.7879    0.0499   -3.8193 N.4       1 <0>        -0.3813
     17 C13         0.4384   -0.5204   -3.7299 C.3       1 <0>        -0.0047
     18 C14        -0.2330   -0.0515   -2.4373 C.3       1 <0>        -0.1411
     19 C15         2.3988   -0.3394   -5.0973 C.3       1 <0>         0.0268
     20 C16         1.6094    0.2833   -6.2506 C.3       1 <0>        -0.2121
     21 C17         0.9066   -0.6685   -7.2207 C.3       1 <0>        -0.1679
     22 C18         2.1573    0.0919   -7.6662 C.3       1 <0>        -0.1492
     23 H1          1.0047    1.8421    0.0024 H         1 <0>         0.0361
     24 H2         -0.5450    1.8259   -0.8730 H         1 <0>         0.0754
     25 H3         -0.5280    1.8163    0.9069 H         1 <0>         0.0830
     26 H4          0.8004   -1.6101    1.0960 H         1 <0>         0.0920
     27 H5          1.6983   -0.0800    1.2392 H         1 <0>         0.0613
     28 H6          1.1558    1.4868    2.9186 H         1 <0>         0.1415
     29 H7         -2.0635    0.6924    5.6074 H         1 <0>         0.1496
     30 H8         -2.7501   -1.2286    4.2348 H         1 <0>         0.1474
     31 H9          0.6219   -1.6050   -1.2103 H         1 <0>         0.1010
     32 H10         2.0068    1.1135   -1.3567 H         1 <0>         0.0941
     33 H11         2.6390   -0.3482   -0.5600 H         1 <0>         0.1131
     34 H12         3.6289   -0.0656   -2.8166 H         1 <0>         0.1312
     35 H13         2.6322   -1.5374   -2.7352 H         1 <0>         0.1296
     36 H14        -0.1518   -0.1918   -4.5853 H         1 <0>         0.1354
     37 H15         0.5035   -1.6085   -3.7310 H         1 <0>         0.1291
     38 H16        -1.2341   -0.4775   -2.3719 H         1 <0>         0.1207
     39 H17        -0.2988    1.0365   -2.4353 H         1 <0>         0.0914
     40 H18         3.4294    0.0139   -5.1300 H         1 <0>         0.1325
     41 H19         2.3838   -1.4253   -5.1913 H         1 <0>         0.1291
     42 H20         1.1153    1.2285   -6.0257 H         1 <0>         0.1243
     43 H21         1.0066   -1.7383   -7.0373 H         1 <0>         0.1060
     44 H22        -0.0502   -0.3496   -7.6341 H         1 <0>         0.1102
     45 H23         2.0234    0.9109   -8.3728 H         1 <0>         0.1122
     46 H24         3.0802   -0.4777   -7.7759 H         1 <0>         0.1076
     47 H25         1.7308    1.0560   -3.7689 H         1 <0>         0.4218
@<TRIPOS>BOND
     1    1    2 1
     2    1   23 1
     3    1   24 1
     4    1   25 1
     5    2    3 1
     6    2   13 1
     7    3    4 1
     8    3   26 1
     9    3   27 1
    10    4    9 ar
    11    4    5 ar
    12    5    6 ar
    13    5   28 1
    14    6    7 ar
    15    6   12 1
    16    7    8 ar
    17    7   29 1
    18    8    9 ar
    19    8   30 1
    20    9   10 1
    21   10   11 3
    22   13   18 1
    23   13   14 1
    24   13   31 1
    25   14   15 1
    26   14   32 1
    27   14   33 1
    28   15   16 1
    29   15   34 1
    30   15   35 1
    31   16   17 1
    32   16   19 1
    33   16   47 1
    34   17   18 1
    35   17   36 1
    36   17   37 1
    37   18   38 1
    38   18   39 1
    39   19   20 1
    40   19   40 1
    41   19   41 1
    42   20   22 1
    43   20   21 1
    44   20   42 1
    45   21   22 1
    46   21   43 1
    47   21   44 1
    48   22   45 1
    49   22   46 1
@<TRIPOS>MOLECULE
CHEMBL492090
   47    50     0     0     0
SMALL
USER_CHARGES

@<TRIPOS>ATOM
      1 C1         -3.0134    2.9706   -3.8125 C.3       1 <0>        -0.0903
      2 C2         -2.5493    2.6249   -2.4211 C.2       1 <0>         0.1435
      3 C3         -1.5966    1.5744   -2.0583 C.2       1 <0>        -0.3067
      4 C4         -1.4667    1.6113   -0.6993 C.2       1 <0>         0.1318
      5 O1         -2.2542    2.5848   -0.2347 O.3       1 <0>        -0.0727
      6 N1         -2.9157    3.2074   -1.3178 N.2       1 <0>        -0.3021
      7 C5         -0.5887    0.7108    0.1308 C.3       1 <0>        -0.0979
      8 C6         -0.9101    0.6537   -2.9819 C.2       1 <0>         0.6118
      9 O2          0.2291    0.8871   -3.3381 O.2       1 <0>        -0.5042
     10 N2         -1.5447   -0.4469   -3.4318 N.am      1 <0>        -0.5586
     11 C7         -0.8348   -1.4055   -4.2823 C.3       1 <0>         0.1431
     12 C8         -0.3304   -2.5480   -3.4389 C.2       1 <0>        -0.0128
     13 C9         -1.1343   -3.6005   -3.1456 C.2       1 <0>        -0.1796
     14 C10        -0.6522   -4.6648   -2.3553 C.2       1 <0>         0.5387
     15 O3         -1.3916   -5.6009   -2.1043 O.2       1 <0>        -0.5199
     16 N3          0.6026   -4.6729   -1.8722 N.am      1 <0>        -0.6258
     17 H1          0.9022   -5.4209   -1.3321 H         1 <0>         0.4219
     18 C11         1.4701   -3.6326   -2.1342 C.ar      1 <0>         0.1850
     19 C12         1.0392   -2.5490   -2.9235 C.ar      1 <0>        -0.1119
     20 C13         1.9158   -1.4934   -3.1975 C.ar      1 <0>        -0.0304
     21 C14         3.1881   -1.5221   -2.7023 C.ar      1 <0>        -0.1545
     22 C15         3.6216   -2.5921   -1.9275 C.ar      1 <0>         0.1298
     23 C16         2.7687   -3.6401   -1.6342 C.ar      1 <0>         0.0145
     24 F1          3.1995   -4.6750   -0.8801 F         1 <0>        -0.1203
     25 F2          4.8844   -2.6025   -1.4474 F         1 <0>        -0.1157
     26 C17        -2.8809   -0.6739   -3.0866 C.ar      1 <0>         0.1354
     27 C18        -3.8914   -0.4043   -4.0009 C.ar      1 <0>        -0.1107
     28 C19        -5.2099   -0.6292   -3.6577 C.ar      1 <0>        -0.0920
     29 C20        -5.5257   -1.1221   -2.4049 C.ar      1 <0>        -0.0996
     30 C21        -4.5220   -1.3914   -1.4911 C.ar      1 <0>        -0.0228
     31 C22        -3.1997   -1.1745   -1.8314 C.ar      1 <0>        -0.1030
     32 Cl1        -4.9230   -2.0089    0.0810 Cl        1 <0>        -0.0554
     33 H2         -2.3486    3.7203   -4.2415 H         1 <0>         0.0968
     34 H3         -2.9994    2.0747   -4.4333 H         1 <0>         0.0854
     35 H4         -4.0279    3.3668   -3.7693 H         1 <0>         0.0909
     36 H5          0.3970    1.1633    0.2388 H         1 <0>         0.1069
     37 H6         -1.0358    0.5746    1.1155 H         1 <0>         0.0975
     38 H7         -0.4923   -0.2570   -0.3614 H         1 <0>         0.0901
     39 H8         -1.5144   -1.7883   -5.0437 H         1 <0>         0.1094
     40 H9          0.0080   -0.9095   -4.7637 H         1 <0>         0.1185
     41 H10        -2.1476   -3.6236   -3.5185 H         1 <0>         0.1594
     42 H11         1.5874   -0.6587   -3.7991 H         1 <0>         0.1688
     43 H12         3.8636   -0.7066   -2.9146 H         1 <0>         0.1564
     44 H13        -3.6459   -0.0187   -4.9795 H         1 <0>         0.1375
     45 H14        -5.9955   -0.4197   -4.3686 H         1 <0>         0.1425
     46 H15        -6.5578   -1.2967   -2.1389 H         1 <0>         0.1402
     47 H16        -2.4161   -1.3893   -1.1199 H         1 <0>         0.1313
@<TRIPOS>BOND
     1    1    2 1
     2    1   33 1
     3    1   34 1
     4    1   35 1
     5    2    6 2
     6    2    3 1
     7    3    4 2
     8    3    8 1
     9    4    5 1
    10    4    7 1
    11    5    6 1
    12    7   36 1
    13    7   37 1
    14    7   38 1
    15    8    9 2
    16    8   10 am
    17   10   11 1
    18   10   26 1
    19   11   12 1
    20   11   39 1
    21   11   40 1
    22   12   19 1
    23   12   13 2
    24   13   14 1
    25   13   41 1
    26   14   15 2
    27   14   16 am
    28   16   17 1
    29   16   18 1
    30   18   23 ar
    31   18   19 ar
    32   19   20 ar
    33   20   21 ar
    34   20   42 1
    35   21   22 ar
    36   21   43 1
    37   22   23 ar
    38   22   25 1
    39   23   24 1
    40   26   31 ar
    41   26   27 ar
    42   27   28 ar
    43   27   44 1
    44   28   29 ar
    45   28   45 1
    46   29   30 ar
    47   29   46 1
    48   30   31 ar
    49   30   32 1
    50   31   47 1
@<TRIPOS>MOLECULE
CHEMBL42969
   53    55     0     0     0
SMALL
USER_CHARGES

@<TRIPOS>ATOM
      1 C1         -0.0178    1.4648    0.0101 C.3       1 <0>        -0.0554
      2 N1          0.0021   -0.0041    0.0020 N.4       1 <0>        -0.3892
      3 C2          0.7126   -0.4907    1.1921 C.3       1 <0>        -0.0492
      4 C3         -1.3761   -0.5125    0.0124 C.3       1 <0>        -0.0029
      5 C4         -2.0780   -0.1101   -1.2861 C.3       1 <0>         0.0207
      6 O1         -1.4443   -0.7583   -2.3908 O.3       1 <0>        -0.3169
      7 C5         -1.9495   -0.5063   -3.6263 C.ar      1 <0>         0.1610
      8 C6         -3.0285    0.3523   -3.7637 C.ar      1 <0>        -0.2049
      9 C7         -3.5405    0.6129   -5.0169 C.ar      1 <0>        -0.0498
     10 C8         -2.9623    0.0200   -6.1347 C.ar      1 <0>        -0.1377
     11 C9         -1.8680   -0.8460   -5.9940 C.ar      1 <0>         0.0163
     12 C10        -1.3725   -1.1105   -4.7451 C.ar      1 <0>        -0.0861
     13 C11        -0.2351   -2.0678   -4.5055 C.3       1 <0>        -0.0853
     14 C12         0.9571   -1.7365   -5.4074 C.3       1 <0>        -0.1186
     15 C13         0.8343   -2.5803   -6.6727 C.3       1 <0>        -0.1298
     16 C14        -0.6433   -2.7823   -7.0145 C.3       1 <0>        -0.1299
     17 C15        -1.2837   -1.4234   -7.2601 C.3       1 <0>        -0.1015
     18 C16        -3.5068    0.3052   -7.4839 C.ar      1 <0>         0.2302
     19 C17        -2.6361    0.4785   -8.5564 C.ar      1 <0>        -0.1650
     20 C18        -3.1552    0.7446   -9.8134 C.ar      1 <0>         0.0394
     21 C19        -4.5297    0.8292   -9.9587 C.ar      1 <0>        -0.1942
     22 C20        -5.3449    0.6459   -8.8460 C.ar      1 <0>         0.4570
     23 N2         -4.8203    0.3876   -7.6590 N.ar      1 <0>        -0.5052
     24 N3         -6.7254    0.7298   -8.9840 N.pl3     1 <0>        -0.8190
     25 H1          1.0047    1.8421    0.0024 H         1 <0>         0.1301
     26 H2         -0.5450    1.8259   -0.8730 H         1 <0>         0.1186
     27 H3         -0.5280    1.8163    0.9069 H         1 <0>         0.1272
     28 H4          0.2024   -0.1392    2.0889 H         1 <0>         0.1256
     29 H5          0.7273   -1.5806    1.1861 H         1 <0>         0.1265
     30 H6          1.7352   -0.1134    1.1844 H         1 <0>         0.1287
     31 H7         -1.3618   -1.5992    0.0961 H         1 <0>         0.1455
     32 H8         -1.9129   -0.0898    0.8617 H         1 <0>         0.1542
     33 H9         -3.1251   -0.4096   -1.2410 H         1 <0>         0.1137
     34 H10        -2.0144    0.9705   -1.4137 H         1 <0>         0.0924
     35 H11        -3.4670    0.8153   -2.8921 H         1 <0>         0.1434
     36 H12        -4.3865    1.2746   -5.1304 H         1 <0>         0.1344
     37 H13         0.0752   -2.0018   -3.4627 H         1 <0>         0.0760
     38 H14        -0.5714   -3.0833   -4.7148 H         1 <0>         0.0937
     39 H15         0.9407   -0.6780   -5.6667 H         1 <0>         0.0656
     40 H16         1.8873   -1.9767   -4.8925 H         1 <0>         0.0753
     41 H17         1.3313   -2.0708   -7.4983 H         1 <0>         0.0714
     42 H18         1.3048   -3.5499   -6.5094 H         1 <0>         0.0730
     43 H19        -0.7311   -3.3935   -7.9127 H         1 <0>         0.0793
     44 H20        -1.1475   -3.2745   -6.1828 H         1 <0>         0.0763
     45 H21        -2.0740   -1.5229   -8.0042 H         1 <0>         0.0842
     46 H22        -0.5199   -0.7457   -7.6415 H         1 <0>         0.0981
     47 H23        -1.5684    0.4066   -8.4104 H         1 <0>         0.1843
     48 H24        -2.5015    0.8835  -10.6618 H         1 <0>         0.1806
     49 H25        -4.9645    1.0358  -10.9255 H         1 <0>         0.1840
     50 H26        -7.1157    0.9153   -9.8524 H         1 <0>         0.4436
     51 H27        -7.2986    0.6028   -8.2118 H         1 <0>         0.4215
     52 H28         0.4743   -0.3295   -0.8281 H         1 <0>         0.4319
     53 H29        -5.4087    0.2592   -6.8987 H         1 <0>         0.4373
@<TRIPOS>BOND
     1    1    2 1
     2    1   25 1
     3    1   26 1
     4    1   27 1
     5    2    3 1
     6    2    4 1
     7    2   52 1
     8    3   28 1
     9    3   29 1
    10    3   30 1
    11    4    5 1
    12    4   31 1
    13    4   32 1
    14    5    6 1
    15    5   33 1
    16    5   34 1
    17    6    7 1
    18    7   12 ar
    19    7    8 ar
    20    8    9 ar
    21    8   35 1
    22    9   10 ar
    23    9   36 1
    24   10   11 ar
    25   10   18 1
    26   11   17 1
    27   11   12 ar
    28   12   13 1
    29   13   14 1
    30   13   37 1
    31   13   38 1
    32   14   15 1
    33   14   39 1
    34   14   40 1
    35   15   16 1
    36   15   41 1
    37   15   42 1
    38   16   17 1
    39   16   43 1
    40   16   44 1
    41   17   45 1
    42   17   46 1
    43   18   23 ar
    44   18   19 ar
    45   19   20 ar
    46   19   47 1
    47   20   21 ar
    48   20   48 1
    49   21   22 ar
    50   21   49 1
    51   22   23 ar
    52   22   24 1
    53   23   53 1
    54   24   50 1
    55   24   51 1
@<TRIPOS>MOLECULE
CHEMBL42969__1
   52    54     0     0     0
SMALL
USER_CHARGES

@<TRIPOS>ATOM
      1 C1          0.0318    1.4751    0.0469 C.3       1 <0>        -0.0544
      2 N1          0.0261    0.0063    0.0185 N.4       1 <0>        -0.3889
      3 C2          0.7103   -0.4627   -1.1938 C.3       1 <0>        -0.0475
      4 C3          0.7229   -0.5091    1.2046 C.3       1 <0>        -0.0015
      5 C4         -0.0591   -0.1254    2.4624 C.3       1 <0>         0.0234
      6 O1         -1.3277   -0.7832    2.4537 O.3       1 <0>        -0.3249
      7 C5         -2.1515   -0.5482    3.5080 C.ar      1 <0>         0.1209
      8 C6         -1.7418    0.3031    4.5217 C.ar      1 <0>        -0.2082
      9 C7         -2.5776    0.5464    5.5907 C.ar      1 <0>        -0.0589
     10 C8         -3.8304   -0.0565    5.6372 C.ar      1 <0>        -0.0636
     11 C9         -4.2448   -0.9151    4.6086 C.ar      1 <0>         0.0019
     12 C10        -3.4044   -1.1625    3.5560 C.ar      1 <0>        -0.0974
     13 C11        -3.7537   -2.1111    2.4399 C.3       1 <0>        -0.0764
     14 C12        -5.1308   -1.7842    1.8558 C.3       1 <0>        -0.1165
     15 C13        -6.1620   -2.6434    2.5816 C.3       1 <0>        -0.1243
     16 C14        -5.7239   -2.8570    4.0319 C.3       1 <0>        -0.1297
     17 C15        -5.6295   -1.5043    4.7236 C.3       1 <0>        -0.0738
     18 C16        -4.7337    0.2101    6.7824 C.ar      1 <0>         0.2097
     19 C17        -4.2456    0.1135    8.0827 C.ar      1 <0>        -0.2186
     20 C18        -5.0981    0.3646    9.1460 C.ar      1 <0>        -0.0293
     21 C19        -6.4129    0.7048    8.8755 C.ar      1 <0>        -0.2350
     22 C20        -6.8377    0.7842    7.5529 C.ar      1 <0>         0.4079
     23 N2         -5.9990    0.5440    6.5580 N.ar      1 <0>        -0.5324
     24 N3         -8.1561    1.1246    7.2736 N.pl3     1 <0>        -0.8503
     25 H1          1.0609    1.8344    0.0484 H         1 <0>         0.1246
     26 H2         -0.4853    1.8575   -0.8332 H         1 <0>         0.1271
     27 H3         -0.4759    1.8231    0.9464 H         1 <0>         0.1219
     28 H4          1.7394   -0.1033   -1.1923 H         1 <0>         0.1230
     29 H5          0.7060   -1.5525   -1.2149 H         1 <0>         0.1247
     30 H6          0.1932   -0.0803   -2.0739 H         1 <0>         0.1257
     31 H7          0.7966   -1.5946    1.1395 H         1 <0>         0.1425
     32 H8          1.7234   -0.0792    1.2535 H         1 <0>         0.1490
     33 H9          0.5019   -0.4298    3.3460 H         1 <0>         0.1093
     34 H10        -0.2096    0.9539    2.4816 H         1 <0>         0.0869
     35 H11        -0.7711    0.7740    4.4746 H         1 <0>         0.1300
     36 H12        -2.2613    1.2024    6.3883 H         1 <0>         0.1334
     37 H13        -3.0029   -2.0313    1.6537 H         1 <0>         0.0671
     38 H14        -3.7608   -3.1307    2.8252 H         1 <0>         0.0849
     39 H15        -5.3558   -0.7289    2.0095 H         1 <0>         0.0652
     40 H16        -5.1436   -2.0136    0.7903 H         1 <0>         0.0662
     41 H17        -7.1292   -2.1410    2.5649 H         1 <0>         0.0656
     42 H18        -6.2464   -3.6085    2.0821 H         1 <0>         0.0642
     43 H19        -6.4555   -3.4791    4.5475 H         1 <0>         0.0686
     44 H20        -4.7479   -3.3419    4.0518 H         1 <0>         0.0718
     45 H21        -5.8826   -1.6165    5.7779 H         1 <0>         0.0769
     46 H22        -6.3448   -0.8272    4.2568 H         1 <0>         0.0881
     47 H23        -3.2146   -0.1545    8.2607 H         1 <0>         0.1315
     48 H24        -4.7446    0.2962   10.1642 H         1 <0>         0.1375
     49 H25        -7.1015    0.9060    9.6828 H         1 <0>         0.1333
     50 H26        -8.7744    1.3053    7.9988 H         1 <0>         0.4109
     51 H27        -8.4578    1.1814    6.3535 H         1 <0>         0.4043
     52 H28        -0.9265   -0.3263    0.0171 H         1 <0>         0.4338
@<TRIPOS>BOND
     1    1    2 1
     2    1   25 1
     3    1   26 1
     4    1   27 1
     5    2    3 1
     6    2    4 1
     7    2   52 1
     8    3   28 1
     9    3   29 1
    10    3   30 1
    11    4    5 1
    12    4   31 1
    13    4   32 1
    14    5    6 1
    15    5   33 1
    16    5   34 1
    17    6    7 1
    18    7   12 ar
    19    7    8 ar
    20    8    9 ar
    21    8   35 1
    22    9   10 ar
    23    9   36 1
    24   10   11 ar
    25   10   18 1
    26   11   17 1
    27   11   12 ar
    28   12   13 1
    29   13   14 1
    30   13   37 1
    31   13   38 1
    32   14   15 1
    33   14   39 1
    34   14   40 1
    35   15   16 1
    36   15   41 1
    37   15   42 1
    38   16   17 1
    39   16   43 1
    40   16   44 1
    41   17   45 1
    42   17   46 1
    43   18   23 ar
    44   18   19 ar
    45   19   20 ar
    46   19   47 1
    47   20   21 ar
    48   20   48 1
    49   21   22 ar
    50   21   49 1
    51   22   23 ar
    52   22   24 1
    53   24   50 1
    54   24   51 1
@<TRIPOS>MOLECULE
CHEMBL42968
   54    57     0     0     0
SMALL
USER_CHARGES

@<TRIPOS>ATOM
      1 C1          0.5597    0.3523    1.1972 C.ar      1 <0>         0.0410
      2 C2          1.7730    1.0226    1.1997 C.ar      1 <0>        -0.1565
      3 C3          2.3793    1.3355   -0.0135 C.ar      1 <0>         0.2312
      4 N1          1.8063    0.9980   -1.1630 N.ar      1 <0>        -0.5078
      5 C4          0.6490    0.3581   -1.1970 C.ar      1 <0>         0.4572
      6 C5         -0.0091    0.0159   -0.0193 C.ar      1 <0>        -0.1942
      7 N2          0.0841    0.0237   -2.4222 N.pl3     1 <0>        -0.8186
      8 C6          3.6769    2.0527   -0.0225 C.ar      1 <0>        -0.1390
      9 C7          4.7055    1.6320    0.8152 C.ar      1 <0>        -0.0257
     10 C8          5.9109    2.3009    0.8056 C.ar      1 <0>        -0.2036
     11 C9          6.0897    3.3882   -0.0349 C.ar      1 <0>         0.1571
     12 C10         5.0616    3.8147   -0.8760 C.ar      1 <0>        -0.0888
     13 C11         3.8620    3.1459   -0.8783 C.ar      1 <0>        -0.0095
     14 C12         2.7162    3.5367   -1.7744 C.3       1 <0>        -0.0999
     15 C13         2.9080    4.9562   -2.3044 C.3       1 <0>        -0.1220
     16 C14         4.3152    5.0623   -2.9038 C.3       1 <0>        -0.1260
     17 C15         5.3263    5.0084   -1.7561 C.3       1 <0>        -0.0764
     18 O1          7.2783    4.0459   -0.0395 O.3       1 <0>        -0.3148
     19 C16         8.2912    3.5615    0.8444 C.3       1 <0>         0.0244
     20 C17         9.5483    4.4216    0.6998 C.3       1 <0>         0.0001
     21 N3          9.2603    5.7895    1.1513 N.4       1 <0>        -0.3919
     22 C18         8.2758    6.4161    0.2436 C.3       1 <0>        -0.0036
     23 C19         8.7062    7.9017    0.1580 C.3       1 <0>        -0.1457
     24 C20        10.2528    7.7814    0.1764 C.3       1 <0>        -0.1425
     25 C21        10.4977    6.5908    1.1272 C.3       1 <0>        -0.0141
     26 H1          0.0706    0.0939    2.1248 H         1 <0>         0.1802
     27 H2          2.2423    1.2993    2.1322 H         1 <0>         0.1793
     28 H3         -0.9535   -0.5068   -0.0540 H         1 <0>         0.1841
     29 H4          0.5383    0.2596   -3.2462 H         1 <0>         0.4215
     30 H5         -0.7643   -0.4455   -2.4532 H         1 <0>         0.4438
     31 H6          4.5599    0.7857    1.4701 H         1 <0>         0.1468
     32 H7          6.7140    1.9784    1.4518 H         1 <0>         0.1456
     33 H8          2.6641    2.8436   -2.6141 H         1 <0>         0.0758
     34 H9          1.7852    3.4867   -1.2098 H         1 <0>         0.0813
     35 H10         2.1645    5.1644   -3.0738 H         1 <0>         0.0821
     36 H11         2.8020    5.6704   -1.4878 H         1 <0>         0.0768
     37 H12         4.4850    4.2335   -3.5910 H         1 <0>         0.0708
     38 H13         4.4172    6.0080   -3.4362 H         1 <0>         0.0827
     39 H14         5.2564    5.9176   -1.1590 H         1 <0>         0.0832
     40 H15         6.3295    4.9305   -2.1751 H         1 <0>         0.0828
     41 H16         7.9318    3.6133    1.8722 H         1 <0>         0.0923
     42 H17         8.5277    2.5273    0.5940 H         1 <0>         0.1144
     43 H18        10.3491    3.9996    1.3070 H         1 <0>         0.1541
     44 H19         9.8567    4.4413   -0.3455 H         1 <0>         0.1427
     45 H20         8.3183    5.9514   -0.7415 H         1 <0>         0.1362
     46 H21         7.2713    6.3354    0.6591 H         1 <0>         0.1312
     47 H22         8.3609    8.3554   -0.7709 H         1 <0>         0.1172
     48 H23         8.3479    8.4624    1.0214 H         1 <0>         0.0985
     49 H24        10.6343    7.5629   -0.8210 H         1 <0>         0.0996
     50 H25        10.7054    8.6904    0.5726 H         1 <0>         0.1152
     51 H26        10.7222    6.9565    2.1291 H         1 <0>         0.1352
     52 H27        11.3247    5.9849    0.7572 H         1 <0>         0.1337
     53 H28         8.8884    5.7671    2.0890 H         1 <0>         0.4251
     54 H29         2.2463    1.2263   -1.9968 H         1 <0>         0.4370
@<TRIPOS>BOND
     1    1    6 ar
     2    1    2 ar
     3    1   26 1
     4    2    3 ar
     5    2   27 1
     6    3    4 ar
     7    3    8 1
     8    4    5 ar
     9    4   54 1
    10    5    6 ar
    11    5    7 1
    12    6   28 1
    13    7   29 1
    14    7   30 1
    15    8   13 ar
    16    8    9 ar
    17    9   10 ar
    18    9   31 1
    19   10   11 ar
    20   10   32 1
    21   11   12 ar
    22   11   18 1
    23   12   17 1
    24   12   13 ar
    25   13   14 1
    26   14   15 1
    27   14   33 1
    28   14   34 1
    29   15   16 1
    30   15   35 1
    31   15   36 1
    32   16   17 1
    33   16   37 1
    34   16   38 1
    35   17   39 1
    36   17   40 1
    37   18   19 1
    38   19   20 1
    39   19   41 1
    40   19   42 1
    41   20   21 1
    42   20   43 1
    43   20   44 1
    44   21   25 1
    45   21   22 1
    46   21   53 1
    47   22   23 1
    48   22   45 1
    49   22   46 1
    50   23   24 1
    51   23   47 1
    52   23   48 1
    53   24   25 1
    54   24   49 1
    55   24   50 1
    56   25   51 1
    57   25   52 1
@<TRIPOS>MOLECULE
CHEMBL42968__1
   53    56     0     0     0
SMALL
USER_CHARGES

@<TRIPOS>ATOM
      1 C1          0.2060    0.9651   -0.9531 C.ar      1 <0>        -0.0295
      2 C2          1.4157    1.6418   -0.9700 C.ar      1 <0>        -0.2193
      3 C3          2.3793    1.3355   -0.0135 C.ar      1 <0>         0.2102
      4 N1          2.1476    0.4066    0.9069 N.ar      1 <0>        -0.5336
      5 C4          1.0031   -0.2556    0.9481 C.ar      1 <0>         0.4092
      6 C5         -0.0017    0.0030    0.0204 C.ar      1 <0>        -0.2351
      7 N2          0.8019   -1.2201    1.9285 N.pl3     1 <0>        -0.8501
      8 C6          3.6769    2.0527   -0.0225 C.ar      1 <0>        -0.0639
      9 C7          3.6991    3.4411   -0.1152 C.ar      1 <0>        -0.0581
     10 C8          4.9068    4.1059   -0.1241 C.ar      1 <0>        -0.2077
     11 C9          6.0897    3.3881   -0.0438 C.ar      1 <0>         0.1192
     12 C10         6.0732    1.9962    0.0483 C.ar      1 <0>        -0.1022
     13 C11         4.8727    1.3292    0.0681 C.ar      1 <0>         0.0021
     14 C12         4.7783   -0.1693    0.1871 C.3       1 <0>        -0.0762
     15 C13         6.1164   -0.8212   -0.1550 C.3       1 <0>        -0.1241
     16 C14         7.2129   -0.1351    0.6682 C.3       1 <0>        -0.1229
     17 C15         7.3982    1.2835    0.1246 C.3       1 <0>        -0.0662
     18 O1          7.2776    4.0469   -0.0553 O.3       1 <0>        -0.3219
     19 C16         7.2284    5.4718   -0.1519 C.3       1 <0>         0.0271
     20 C17         8.6519    6.0326   -0.1504 C.3       1 <0>         0.0013
     21 N3          9.3557    5.5852   -1.3597 N.4       1 <0>        -0.3909
     22 C18         9.5350    4.1183   -1.3170 C.3       1 <0>        -0.0027
     23 C19        10.9199    3.8700   -1.9652 C.3       1 <0>        -0.1455
     24 C20        11.7319    5.0851   -1.4446 C.3       1 <0>        -0.1419
     25 C21        10.6854    6.2191   -1.4231 C.3       1 <0>        -0.0134
     26 H1         -0.5601    1.1870   -1.6814 H         1 <0>         0.1372
     27 H2          1.6084    2.3977   -1.7169 H         1 <0>         0.1309
     28 H3         -0.9339   -0.5409    0.0598 H         1 <0>         0.1334
     29 H4          1.4987   -1.4046    2.5776 H         1 <0>         0.4046
     30 H5         -0.0353   -1.7088    1.9635 H         1 <0>         0.4110
     31 H6          2.7744    3.9953   -0.1802 H         1 <0>         0.1332
     32 H7          4.9311    5.1833   -0.1939 H         1 <0>         0.1302
     33 H8          4.5013   -0.4319    1.2081 H         1 <0>         0.0942
     34 H9          4.0140   -0.5367   -0.4977 H         1 <0>         0.0748
     35 H10         6.0816   -1.8823    0.0919 H         1 <0>         0.0716
     36 H11         6.3238   -0.6978   -1.2180 H         1 <0>         0.0639
     37 H12         6.9162   -0.0981    1.7164 H         1 <0>         0.0693
     38 H13         8.1467   -0.6888    0.5698 H         1 <0>         0.0702
     39 H14         7.8422    1.2430   -0.8701 H         1 <0>         0.0717
     40 H15         8.0631    1.8315    0.7922 H         1 <0>         0.0720
     41 H16         6.7268    5.7562   -1.0769 H         1 <0>         0.0861
     42 H17         6.6782    5.8748    0.6985 H         1 <0>         0.1091
     43 H18         8.6133    7.1218   -0.1344 H         1 <0>         0.1486
     44 H19         9.1824    5.6748    0.7321 H         1 <0>         0.1401
     45 H20         9.5299    3.7652   -0.2858 H         1 <0>         0.1380
     46 H21         8.7526    3.6234   -1.8924 H         1 <0>         0.1343
     47 H22        11.3523    2.9326   -1.6153 H         1 <0>         0.1162
     48 H23        10.8501    3.8841   -3.0529 H         1 <0>         0.0967
     49 H24        12.1126    4.8930   -0.4415 H         1 <0>         0.0984
     50 H25        12.5466    5.3255   -2.1277 H         1 <0>         0.1121
     51 H26        10.7681    6.8173   -2.3305 H         1 <0>         0.1322
     52 H27        10.8384    6.8483   -0.5463 H         1 <0>         0.1315
     53 H28         8.8205    5.8363   -2.1774 H         1 <0>         0.4245
@<TRIPOS>BOND
     1    1    6 ar
     2    1    2 ar
     3    1   26 1
     4    2    3 ar
     5    2   27 1
     6    3    4 ar
     7    3    8 1
     8    4    5 ar
     9    5    6 ar
    10    5    7 1
    11    6   28 1
    12    7   29 1
    13    7   30 1
    14    8   13 ar
    15    8    9 ar
    16    9   10 ar
    17    9   31 1
    18   10   11 ar
    19   10   32 1
    20   11   12 ar
    21   11   18 1
    22   12   17 1
    23   12   13 ar
    24   13   14 1
    25   14   15 1
    26   14   33 1
    27   14   34 1
    28   15   16 1
    29   15   35 1
    30   15   36 1
    31   16   17 1
    32   16   37 1
    33   16   38 1
    34   17   39 1
    35   17   40 1
    36   18   19 1
    37   19   20 1
    38   19   41 1
    39   19   42 1
    40   20   21 1
    41   20   43 1
    42   20   44 1
    43   21   25 1
    44   21   22 1
    45   21   53 1
    46   22   23 1
    47   22   45 1
    48   22   46 1
    49   23   24 1
    50   23   47 1
    51   23   48 1
    52   24   25 1
    53   24   49 1
    54   24   50 1
    55   25   51 1
    56   25   52 1
@<TRIPOS>MOLECULE
CHEMBL447832
   16    16     0     0     0
SMALL
USER_CHARGES

@<TRIPOS>ATOM
      1 C1         -0.0179    1.4717    0.0101 C.3       1 <0>         0.0528
      2 C2          1.4919    1.8138   -0.0024 C.3       1 <0>         0.0668
      3 O1          2.0609    0.6086    0.5492 O.3       1 <0>        -0.2636
      4 C3          1.1993   -0.3994    0.3082 C.cat     1 <0>         0.6777
      5 N1          0.0021   -0.0041    0.0020 N.pl3     1 <0>        -0.6441
      6 N2          1.5559   -1.7238    0.3803 N.pl3     1 <0>        -0.7563
      7 C4          1.7894    3.0203    0.8901 C.3       1 <0>        -0.1081
      8 Br1         3.6848    3.5127    0.7161 Br        1 <0>        -0.0961
      9 H1         -0.4952    1.8497    0.9143 H         1 <0>         0.1354
     10 H2         -0.5124    1.8593   -0.8806 H         1 <0>         0.1495
     11 H3          1.8462    1.9842   -1.0191 H         1 <0>         0.1483
     12 H4          2.4647   -1.9693    0.6140 H         1 <0>         0.4513
     13 H5          0.8989   -2.4136    0.1975 H         1 <0>         0.4491
     14 H6          1.1662    3.8608    0.5845 H         1 <0>         0.1471
     15 H7          1.5738    2.7665    1.9279 H         1 <0>         0.1265
     16 H8         -0.7518   -0.5806   -0.1985 H         1 <0>         0.4635
@<TRIPOS>BOND
     1    1    5 1
     2    1    2 1
     3    1    9 1
     4    1   10 1
     5    2    3 1
     6    2    7 1
     7    2   11 1
     8    3    4 1
     9    4    5 2
    10    4    6 1
    11    5   16 1
    12    6   12 1
    13    6   13 1
    14    7    8 1
    15    7   14 1
    16    7   15 1
@<TRIPOS>MOLECULE
CHEMBL447832__1
   16    16     0     0     0
SMALL
USER_CHARGES

@<TRIPOS>ATOM
      1 C1         -0.0179    1.4717    0.0101 C.3       1 <0>         0.0528
      2 C2          1.4919    1.8138   -0.0024 C.3       1 <0>         0.0668
      3 O1          2.0502    0.6147   -0.5777 O.3       1 <0>        -0.2636
      4 C3          1.1932   -0.3960   -0.3312 C.cat     1 <0>         0.6777
      5 N1          0.0021   -0.0041    0.0020 N.pl3     1 <0>        -0.6441
      6 N2          1.5482   -1.7194   -0.4243 N.pl3     1 <0>        -0.7563
      7 C4          1.7725    3.0299   -0.8875 C.3       1 <0>        -0.1081
      8 Br1         3.6709    3.5205   -0.7445 Br        1 <0>        -0.0960
      9 H1         -0.4952    1.8497    0.9143 H         1 <0>         0.1495
     10 H2         -0.5124    1.8593   -0.8806 H         1 <0>         0.1354
     11 H3          1.8656    1.9733    1.0090 H         1 <0>         0.1483
     12 H4          2.4526   -1.9623   -0.6772 H         1 <0>         0.4513
     13 H5          0.8946   -2.4113   -0.2371 H         1 <0>         0.4491
     14 H6          1.5370    2.7872   -1.9237 H         1 <0>         0.1265
     15 H7          1.1553    3.8669   -0.5611 H         1 <0>         0.1470
     16 H8         -0.7479   -0.5827    0.2107 H         1 <0>         0.4635
@<TRIPOS>BOND
     1    1    5 1
     2    1    2 1
     3    1    9 1
     4    1   10 1
     5    2    3 1
     6    2    7 1
     7    2   11 1
     8    3    4 1
     9    4    5 2
    10    4    6 1
    11    5   16 1
    12    6   12 1
    13    6   13 1
    14    7    8 1
    15    7   14 1
    16    7   15 1
@<TRIPOS>MOLECULE
CHEMBL542132
   50    53     0     0     0
SMALL
USER_CHARGES

@<TRIPOS>ATOM
      1 C1         -0.0167    1.3777    0.0096 C.ar      1 <0>        -0.1056
      2 C2          1.1710    2.0855    0.0021 C.ar      1 <0>        -0.1111
      3 C3          2.3777    1.4116   -0.0130 C.ar      1 <0>        -0.0784
      4 C4          2.3977    0.0294   -0.0210 C.ar      1 <0>        -0.0880
      5 C5          1.2098   -0.6793   -0.0135 C.ar      1 <0>        -0.0345
      6 C6          0.0021   -0.0041    0.0020 C.ar      1 <0>        -0.1067
      7 Cl1         1.2341   -2.4151   -0.0242 Cl        1 <0>        -0.0638
      8 C7          3.6718    2.1839   -0.0212 C.3       1 <0>         0.1014
      9 N1          4.1055    2.4274    1.3610 N.3       1 <0>        -0.6850
     10 C8          5.3668    3.1797    1.3922 C.3       1 <0>         0.0652
     11 C9          5.7855    3.4134    2.8451 C.3       1 <0>        -0.0867
     12 C10         7.0795    4.1852    2.8771 C.ar      1 <0>        -0.0395
     13 C11         8.2888    3.5139    2.8748 C.ar      1 <0>        -0.1041
     14 C12         9.4745    4.2188    2.9072 C.ar      1 <0>        -0.0792
     15 C13         9.4695    5.6072    2.9409 C.ar      1 <0>        -0.1074
     16 C14         8.2580    6.2757    2.9377 C.ar      1 <0>         0.1293
     17 C15         7.0631    5.5649    2.9031 C.ar      1 <0>        -0.1266
     18 N2          8.2088    7.6773    2.9533 N.pl3     1 <0>        -0.6392
     19 C16         9.3767    8.3477    3.2528 C.cat     1 <0>         0.5583
     20 C17        10.6550    7.8144    2.6614 C.3       1 <0>        -0.0953
     21 H1         11.5148    8.3826    3.0165 H         1 <0>         0.1407
     22 C18        10.7959    6.3158    2.9830 C.3       1 <0>        -0.0390
     23 H2         11.2703    6.1776    3.9546 H         1 <0>         0.1130
     24 C19        11.6808    5.7621    1.8446 C.3       1 <0>        -0.1203
     25 C20        11.5394    6.7369    0.6625 C.3       1 <0>        -0.1237
     26 C21        10.5688    7.8462    1.1193 C.3       1 <0>        -0.1139
     27 N3          9.3739    9.3946    4.0122 N.pl3     1 <0>        -0.6977
     28 H3         -0.9592    1.9048    0.0259 H         1 <0>         0.1338
     29 H4          1.1559    3.1654    0.0076 H         1 <0>         0.1245
     30 H5          3.3407   -0.4970   -0.0336 H         1 <0>         0.1344
     31 H6         -0.9257   -0.5568    0.0079 H         1 <0>         0.1354
     32 H7          4.4349    1.6086   -0.5454 H         1 <0>         0.0855
     33 H8          3.5229    3.1370   -0.5286 H         1 <0>         0.0437
     34 H9          3.3876    2.9032    1.8867 H         1 <0>         0.3447
     35 H10         6.1417    2.6113    0.8778 H         1 <0>         0.0784
     36 H11         5.2297    4.1398    0.8946 H         1 <0>         0.0314
     37 H12         5.0106    3.9818    3.3595 H         1 <0>         0.0780
     38 H13         5.9226    2.4534    3.3427 H         1 <0>         0.0941
     39 H14         8.3050    2.4344    2.8480 H         1 <0>         0.1404
     40 H15        10.4142    3.6864    2.9068 H         1 <0>         0.1425
     41 H16         6.1212    6.0933    2.9015 H         1 <0>         0.1355
     42 H17        12.7206    5.7166    2.1686 H         1 <0>         0.0859
     43 H18        11.3365    4.7698    1.5533 H         1 <0>         0.0878
     44 H19        12.5097    7.1680    0.4159 H         1 <0>         0.0814
     45 H20        11.1306    6.2166   -0.2037 H         1 <0>         0.0818
     46 H21         9.5538    7.6246    0.7894 H         1 <0>         0.0810
     47 H22        10.8913    8.8155    0.7392 H         1 <0>         0.0901
     48 H23         8.5398    9.7225    4.3831 H         1 <0>         0.4354
     49 H24        10.2060    9.8519    4.2108 H         1 <0>         0.4526
     50 H25         7.3871    8.1557    2.7611 H         1 <0>         0.4394
@<TRIPOS>BOND
     1    1    6 ar
     2    1    2 ar
     3    1   28 1
     4    2    3 ar
     5    2   29 1
     6    3    4 ar
     7    3    8 1
     8    4    5 ar
     9    4   30 1
    10    5    6 ar
    11    5    7 1
    12    6   31 1
    13    8    9 1
    14    8   32 1
    15    8   33 1
    16    9   10 1
    17    9   34 1
    18   10   11 1
    19   10   35 1
    20   10   36 1
    21   11   12 1
    22   11   37 1
    23   11   38 1
    24   12   17 ar
    25   12   13 ar
    26   13   14 ar
    27   13   39 1
    28   14   15 ar
    29   14   40 1
    30   15   22 1
    31   15   16 ar
    32   16   17 ar
    33   16   18 1
    34   17   41 1
    35   18   19 1
    36   18   50 1
    37   19   20 1
    38   19   27 2
    39   20   21 1
    40   20   26 1
    41   20   22 1
    42   22   23 1
    43   22   24 1
    44   24   25 1
    45   24   42 1
    46   24   43 1
    47   25   26 1
    48   25   44 1
    49   25   45 1
    50   26   46 1
    51   26   47 1
    52   27   48 1
    53   27   49 1
@<TRIPOS>MOLECULE
CHEMBL542132__1
   51    54     0     0     0
SMALL
USER_CHARGES

@<TRIPOS>ATOM
      1 C1         -0.0167    1.3777    0.0096 C.ar      1 <0>        -0.0985
      2 C2          1.1710    2.0855    0.0021 C.ar      1 <0>        -0.0899
      3 C3          2.3777    1.4116   -0.0130 C.ar      1 <0>        -0.1606
      4 C4          2.3977    0.0294   -0.0210 C.ar      1 <0>        -0.0869
      5 C5          1.2098   -0.6793   -0.0135 C.ar      1 <0>        -0.0355
      6 C6          0.0021   -0.0041    0.0020 C.ar      1 <0>        -0.0721
      7 Cl1         1.2341   -2.4151   -0.0242 Cl        1 <0>        -0.0352
      8 C7          3.6718    2.1839   -0.0212 C.3       1 <0>         0.0497
      9 N1          4.1055    2.4274    1.3610 N.4       1 <0>        -0.5107
     10 C8          5.3669    3.1802    1.3530 C.3       1 <0>        -0.0068
     11 C9          5.8186    3.4338    2.7926 C.3       1 <0>        -0.1082
     12 C10         7.1127    4.2060    2.7844 C.ar      1 <0>        -0.0663
     13 C11         8.3219    3.5349    2.7636 C.ar      1 <0>        -0.1028
     14 C12         9.5078    4.2403    2.7592 C.ar      1 <0>        -0.0747
     15 C13         9.5030    5.6290    2.7739 C.ar      1 <0>        -0.0889
     16 C14         8.2915    6.2973    2.7894 C.ar      1 <0>         0.1397
     17 C15         7.0964    5.5860    2.7920 C.ar      1 <0>        -0.1225
     18 N2          8.2420    7.6990    2.7870 N.pl3     1 <0>        -0.6473
     19 C16         9.4162    8.3735    3.0504 C.cat     1 <0>         0.5616
     20 C17        10.6809    7.8323    2.4372 C.3       1 <0>        -0.0971
     21 H1         11.5483    8.4054    2.7648 H         1 <0>         0.1453
     22 C18        10.8297    6.3383    2.7760 C.3       1 <0>        -0.0452
     23 H2         11.3263    6.2134    3.7382 H         1 <0>         0.1186
     24 C19        11.6885    5.7691    1.6253 C.3       1 <0>        -0.1202
     25 C20        11.5197    6.7277    0.4335 C.3       1 <0>        -0.1250
     26 C21        10.5593    7.8430    0.8973 C.3       1 <0>        -0.1137
     27 N3          9.4304    9.4307    3.7953 N.pl3     1 <0>        -0.6878
     28 H3         -0.9592    1.9048    0.0259 H         1 <0>         0.1479
     29 H4          1.1559    3.1654    0.0076 H         1 <0>         0.1378
     30 H5          3.3407   -0.4970   -0.0336 H         1 <0>         0.1427
     31 H6         -0.9257   -0.5568    0.0079 H         1 <0>         0.1491
     32 H7          4.4349    1.6086   -0.5454 H         1 <0>         0.1417
     33 H8          3.5229    3.1370   -0.5286 H         1 <0>         0.1416
     34 H9          3.3991    2.9600    1.8463 H         1 <0>         0.4291
     35 H10         6.1300    2.6048    0.8288 H         1 <0>         0.1372
     36 H11         5.2180    4.1333    0.8457 H         1 <0>         0.1336
     37 H12         5.0555    4.0091    3.3168 H         1 <0>         0.1017
     38 H13         5.9675    2.4806    3.3000 H         1 <0>         0.1065
     39 H14         8.3380    2.4551    2.7511 H         1 <0>         0.1414
     40 H15        10.4474    3.7080    2.7445 H         1 <0>         0.1486
     41 H16         6.1544    6.1142    2.8047 H         1 <0>         0.1392
     42 H17        12.7355    5.7282    1.9259 H         1 <0>         0.0903
     43 H18        11.3381    4.7729    1.3555 H         1 <0>         0.0865
     44 H19        12.4839    7.1555    0.1589 H         1 <0>         0.0853
     45 H20        11.0913    6.1956   -0.4158 H         1 <0>         0.0822
     46 H21         9.5372    7.6168    0.5938 H         1 <0>         0.0793
     47 H22        10.8727    8.8070    0.4967 H         1 <0>         0.0937
     48 H23         8.6048    9.7636    4.1807 H         1 <0>         0.4376
     49 H24        10.2666    9.8907    3.9685 H         1 <0>         0.4565
     50 H25         7.4160    8.1746    2.6071 H         1 <0>         0.4407
     51 H26         4.2433    1.5451    1.8307 H         1 <0>         0.4308
@<TRIPOS>BOND
     1    1    6 ar
     2    1    2 ar
     3    1   28 1
     4    2    3 ar
     5    2   29 1
     6    3    4 ar
     7    3    8 1
     8    4    5 ar
     9    4   30 1
    10    5    6 ar
    11    5    7 1
    12    6   31 1
    13    8    9 1
    14    8   32 1
    15    8   33 1
    16    9   10 1
    17    9   34 1
    18    9   51 1
    19   10   11 1
    20   10   35 1
    21   10   36 1
    22   11   12 1
    23   11   37 1
    24   11   38 1
    25   12   17 ar
    26   12   13 ar
    27   13   14 ar
    28   13   39 1
    29   14   15 ar
    30   14   40 1
    31   15   22 1
    32   15   16 ar
    33   16   17 ar
    34   16   18 1
    35   17   41 1
    36   18   19 1
    37   18   50 1
    38   19   20 1
    39   19   27 2
    40   20   21 1
    41   20   26 1
    42   20   22 1
    43   22   23 1
    44   22   24 1
    45   24   25 1
    46   24   42 1
    47   24   43 1
    48   25   26 1
    49   25   44 1
    50   25   45 1
    51   26   46 1
    52   26   47 1
    53   27   48 1
    54   27   49 1
@<TRIPOS>MOLECULE
CHEMBL447183
   45    48     0     0     0
SMALL
USER_CHARGES

@<TRIPOS>ATOM
      1 C1         -3.5640   -0.4582    0.9320 C.ar      1 <0>        -0.0460
      2 C2         -4.7583    0.2393    0.9291 C.ar      1 <0>        -0.1248
      3 C3         -4.9185    1.3101    0.0498 C.ar      1 <0>         0.2330
      4 N1         -3.9417    1.6628   -0.7788 N.ar      1 <0>        -0.4460
      5 C4         -2.7931    1.0251   -0.8058 C.ar      1 <0>         0.1729
      6 C5         -2.5576   -0.0577    0.0456 C.ar      1 <0>        -0.1716
      7 C6         -1.2625   -0.7708    0.0105 C.2       1 <0>         0.5746
      8 O1         -0.2269   -0.1447   -0.1034 O.2       1 <0>        -0.4982
      9 N2         -1.2305   -2.1149    0.1047 N.am      1 <0>        -0.6189
     10 C7          0.0503   -2.8278    0.2056 C.3       1 <0>         0.1105
     11 C8          0.1059   -3.8987   -0.8882 C.3       1 <0>        -0.1552
     12 C9         -1.1253   -4.8024   -0.7747 C.3       1 <0>         0.3969
     13 C10        -2.3903   -3.9656   -0.9837 C.3       1 <0>        -0.1592
     14 C11        -2.4759   -2.8943    0.1145 C.3       1 <0>         0.0942
     15 N3         -1.0559   -5.8393   -1.8131 N.pl3     1 <0>        -0.7267
     16 C12        -1.8667   -6.9654   -1.6756 C.ar      1 <0>         0.2488
     17 C13        -2.3355   -7.6757   -2.7670 C.ar      1 <0>         0.0520
     18 C14        -3.1401   -8.7847   -2.5671 C.ar      1 <0>        -0.0218
     19 C15        -3.4795   -9.1857   -1.2859 C.ar      1 <0>        -0.1516
     20 C16        -3.0166   -8.4869   -0.1855 C.ar      1 <0>         0.1890
     21 C17        -2.2038   -7.3713   -0.3738 C.ar      1 <0>        -0.2199
     22 C18        -1.6695   -6.5936    0.7612 C.cat     1 <0>         0.6028
     23 N4         -1.1594   -5.4123    0.5538 N.pl3     1 <0>        -0.6338
     24 N5         -1.7105   -7.1148    2.0367 N.pl3     1 <0>        -0.7826
     25 F1         -3.3509   -8.8827    1.0622 F         1 <0>        -0.1105
     26 F2         -2.0096   -7.2896   -4.0199 F         1 <0>        -0.1115
     27 C19        -6.1516    2.0381    0.0397 C.1       1 <0>         0.2460
     28 N6         -7.1298    2.6157    0.0317 N.1       1 <0>        -0.3548
     29 H1         -3.4101   -1.2888    1.6050 H         1 <0>         0.1523
     30 H2         -5.5571   -0.0420    1.5993 H         1 <0>         0.1591
     31 H3         -2.0228    1.3413   -1.4935 H         1 <0>         0.1810
     32 H4          0.8718   -2.1242    0.0703 H         1 <0>         0.1257
     33 H5          0.1291   -3.3008    1.1844 H         1 <0>         0.0708
     34 H6          0.1161   -3.4189   -1.8669 H         1 <0>         0.1195
     35 H7          1.0088   -4.4969   -0.7662 H         1 <0>         0.1087
     36 H8         -2.3516   -3.4856   -1.9616 H         1 <0>         0.1157
     37 H9         -3.2668   -4.6113   -0.9293 H         1 <0>         0.0970
     38 H10        -2.6002   -3.3721    1.0862 H         1 <0>         0.0756
     39 H11        -3.3212   -2.2347   -0.0815 H         1 <0>         0.1154
     40 H12        -0.4623   -5.7430   -2.5741 H         1 <0>         0.4378
     41 H13        -3.5062   -9.3411   -3.4173 H         1 <0>         0.1739
     42 H14        -4.1101  -10.0510   -1.1447 H         1 <0>         0.1726
     43 H15        -2.0908   -7.9939    2.1895 H         1 <0>         0.4435
     44 H16        -1.3589   -6.6023    2.7816 H         1 <0>         0.4307
     45 H17        -0.7903   -4.9220    1.3049 H         1 <0>         0.4329
@<TRIPOS>BOND
     1    1    6 ar
     2    1    2 ar
     3    1   29 1
     4    2    3 ar
     5    2   30 1
     6    3    4 ar
     7    3   27 1
     8    4    5 ar
     9    5    6 ar
    10    5   31 1
    11    6    7 1
    12    7    8 2
    13    7    9 am
    14    9   14 1
    15    9   10 1
    16   10   11 1
    17   10   32 1
    18   10   33 1
    19   11   12 1
    20   11   34 1
    21   11   35 1
    22   12   23 1
    23   12   13 1
    24   12   15 1
    25   13   14 1
    26   13   36 1
    27   13   37 1
    28   14   38 1
    29   14   39 1
    30   15   16 1
    31   15   40 1
    32   16   21 ar
    33   16   17 ar
    34   17   18 ar
    35   17   26 1
    36   18   19 ar
    37   18   41 1
    38   19   20 ar
    39   19   42 1
    40   20   21 ar
    41   20   25 1
    42   21   22 1
    43   22   23 2
    44   22   24 1
    45   23   45 1
    46   24   43 1
    47   24   44 1
    48   27   28 3
@<TRIPOS>MOLECULE
CHEMBL555715
   30    31     0     0     0
SMALL
USER_CHARGES

@<TRIPOS>ATOM
      1 C1         -0.1447    1.2911    0.5696 C.ar      1 <0>        -0.0905
      2 C2          0.9401    2.0740    0.2151 C.ar      1 <0>        -0.1171
      3 C3          2.1179    1.4848   -0.2090 C.ar      1 <0>        -0.1534
      4 C4          2.2187    0.1110   -0.2816 C.ar      1 <0>        -0.1083
      5 C5          1.1278   -0.6857    0.0747 C.ar      1 <0>         0.1480
      6 C6         -0.0585   -0.0836    0.5025 C.ar      1 <0>        -0.1160
      7 N1          1.2202   -2.0479    0.0048 N.2       1 <0>        -0.6046
      8 C7          0.4485   -2.7181   -0.8244 C.2       1 <0>         0.5448
      9 N2          0.4314   -4.0968   -0.7886 N.pl3     1 <0>        -0.8162
     10 C8         -0.3935   -1.9986   -1.7869 C.2       1 <0>        -0.2700
     11 C9         -1.3652   -2.4962   -2.6402 C.2       1 <0>        -0.0796
     12 C10        -1.9947   -1.5663   -3.4357 C.2       1 <0>        -0.1834
     13 C11        -1.6350   -0.2641   -3.3367 C.2       1 <0>        -0.2416
     14 S1         -0.4384   -0.2555   -2.1577 S.3       1 <0>         0.2534
     15 C12         3.2935    2.3461   -0.5929 C.3       1 <0>         0.0485
     16 N3          4.1287    2.5904    0.5906 N.4       1 <0>        -0.6369
     17 H1         -1.0595    1.7577    0.9040 H         1 <0>         0.1360
     18 H2          0.8667    3.1502    0.2693 H         1 <0>         0.1310
     19 H3          3.1385   -0.3475   -0.6135 H         1 <0>         0.1322
     20 H4         -0.9058   -0.6933    0.7795 H         1 <0>         0.1304
     21 H5          0.9880   -4.5724   -0.1524 H         1 <0>         0.4183
     22 H6         -1.6126   -3.5468   -2.6787 H         1 <0>         0.1461
     23 H7         -2.7644   -1.8705   -4.1295 H         1 <0>         0.1397
     24 H8         -2.0303    0.5770   -3.8869 H         1 <0>         0.1886
     25 H9          3.8834    1.8369   -1.3550 H         1 <0>         0.1385
     26 H10         2.9341    3.2968   -0.9866 H         1 <0>         0.1404
     27 H11         3.5826    3.0618    1.2961 H         1 <0>         0.4347
     28 H12         4.4613    1.7103    0.9551 H         1 <0>         0.4353
     29 H13         4.9158    3.1670    0.3336 H         1 <0>         0.4366
     30 H14        -0.1374   -4.5908   -1.3997 H         1 <0>         0.4151
@<TRIPOS>BOND
     1    1    6 ar
     2    1    2 ar
     3    1   17 1
     4    2    3 ar
     5    2   18 1
     6    3    4 ar
     7    3   15 1
     8    4    5 ar
     9    4   19 1
    10    5    6 ar
    11    5    7 1
    12    6   20 1
    13    7    8 2
    14    8    9 1
    15    8   10 1
    16    9   21 1
    17    9   30 1
    18   10   14 1
    19   10   11 2
    20   11   12 1
    21   11   22 1
    22   12   13 2
    23   12   23 1
    24   13   14 1
    25   13   24 1
    26   15   16 1
    27   15   25 1
    28   15   26 1
    29   16   27 1
    30   16   28 1
    31   16   29 1
@<TRIPOS>MOLECULE
CHEMBL555715__1
   31    32     0     0     0
SMALL
USER_CHARGES

@<TRIPOS>ATOM
      1 C1         -1.1257    0.8617   -0.0285 C.ar      1 <0>        -0.0728
      2 C2         -0.3163    1.7861   -0.6635 C.ar      1 <0>        -0.0768
      3 C3          0.9360    1.4164   -1.1180 C.ar      1 <0>        -0.1322
      4 C4          1.3829    0.1217   -0.9391 C.ar      1 <0>        -0.0907
      5 C5          0.5729   -0.8089   -0.3014 C.ar      1 <0>         0.0977
      6 C6         -0.6849   -0.4341    0.1540 C.ar      1 <0>        -0.1284
      7 N1          1.0220   -2.1202   -0.1191 N.pl3     1 <0>        -0.6218
      8 C7          0.7547   -2.7837    1.0626 C.cat     1 <0>         0.6557
      9 N2          0.1878   -2.1493    2.0544 N.pl3     1 <0>        -0.7330
     10 C8          1.1084   -4.2045    1.2046 C.2       1 <0>        -0.3534
     11 C9          1.4594   -4.9060    2.3442 C.2       1 <0>        -0.0113
     12 C10         1.7399   -6.2417    2.1622 C.2       1 <0>        -0.1970
     13 C11         1.6568   -6.7673    0.9171 C.2       1 <0>        -0.1572
     14 S1          1.1889   -5.4726   -0.0457 S.3       1 <0>         0.3186
     15 C12         1.8143    2.4269   -1.8098 C.3       1 <0>         0.0421
     16 N3          2.6482    3.1138   -0.8145 N.4       1 <0>        -0.6374
     17 H1         -2.1018    1.1548    0.3290 H         1 <0>         0.1584
     18 H2         -0.6635    2.7990   -0.8050 H         1 <0>         0.1524
     19 H3          2.3610   -0.1666   -1.2949 H         1 <0>         0.1512
     20 H4         -1.3172   -1.1554    0.6503 H         1 <0>         0.1464
     21 H5          1.5212   -2.5642   -0.8224 H         1 <0>         0.4497
     22 H6         -0.0860   -2.6354    2.8479 H         1 <0>         0.4527
     23 H7          1.5104   -4.4356    3.3150 H         1 <0>         0.1599
     24 H8          2.0224   -6.8611    3.0005 H         1 <0>         0.1631
     25 H9          1.8440   -7.7867    0.6133 H         1 <0>         0.2131
     26 H10         2.4540    1.9188   -2.5314 H         1 <0>         0.1482
     27 H11         1.1910    3.1563   -2.3271 H         1 <0>         0.1519
     28 H12         2.0561    3.5841   -0.1465 H         1 <0>         0.4374
     29 H13         3.2252    2.4386   -0.3356 H         1 <0>         0.4344
     30 H14         3.2363    3.7904   -1.2777 H         1 <0>         0.4467
     31 H15         0.0407   -1.1922    1.9971 H         1 <0>         0.4326
@<TRIPOS>BOND
     1    1    6 ar
     2    1    2 ar
     3    1   17 1
     4    2    3 ar
     5    2   18 1
     6    3    4 ar
     7    3   15 1
     8    4    5 ar
     9    4   19 1
    10    5    6 ar
    11    5    7 1
    12    6   20 1
    13    7    8 1
    14    7   21 1
    15    8    9 2
    16    8   10 1
    17    9   22 1
    18    9   31 1
    19   10   14 1
    20   10   11 2
    21   11   12 1
    22   11   23 1
    23   12   13 2
    24   12   24 1
    25   13   14 1
    26   13   25 1
    27   15   16 1
    28   15   26 1
    29   15   27 1
    30   16   28 1
    31   16   29 1
    32   16   30 1
@<TRIPOS>MOLECULE
CHEMBL555715__2
   30    31     0     0     0
SMALL
USER_CHARGES

@<TRIPOS>ATOM
      1 C1         -0.3024    1.2088   -0.6002 C.ar      1 <0>        -0.0949
      2 C2          0.8098    2.0298   -0.5572 C.ar      1 <0>        -0.1130
      3 C3          2.0634    1.4898   -0.3370 C.ar      1 <0>        -0.1523
      4 C4          2.2089    0.1278   -0.1592 C.ar      1 <0>        -0.1330
      5 C5          1.0941   -0.6994   -0.2014 C.ar      1 <0>         0.1831
      6 C6         -0.1641   -0.1536   -0.4229 C.ar      1 <0>        -0.0759
      7 N1          1.2379   -2.0785   -0.0224 N.pl3     1 <0>        -0.6613
      8 C7          0.2764   -2.7890    0.6695 C.2       1 <0>         0.5033
      9 N2         -0.7099   -2.1588    1.2506 N.2       1 <0>        -0.7348
     10 C8          0.3627   -4.2551    0.7521 C.2       1 <0>        -0.2468
     11 C9         -0.4889   -5.1445    1.3827 C.2       1 <0>        -0.0878
     12 C10        -0.1440   -6.4740    1.2864 C.2       1 <0>        -0.1783
     13 C11         0.9728   -6.8157    0.6013 C.2       1 <0>        -0.2139
     14 S1          1.5876   -5.3493    0.0591 S.3       1 <0>         0.2052
     15 C12         3.2725    2.3882   -0.2914 C.3       1 <0>         0.0499
     16 N3          3.4947    2.8405    1.0885 N.4       1 <0>        -0.6371
     17 H1         -1.2808    1.6342   -0.7683 H         1 <0>         0.1373
     18 H2          0.6988    3.0951   -0.6962 H         1 <0>         0.1311
     19 H3          3.1885   -0.2935    0.0120 H         1 <0>         0.1320
     20 H4         -1.0330   -0.7941   -0.4562 H         1 <0>         0.1452
     21 H5          2.0128   -2.5363   -0.3840 H         1 <0>         0.4185
     22 H6         -1.3684   -4.8167    1.9170 H         1 <0>         0.1443
     23 H7         -0.7554   -7.2335    1.7509 H         1 <0>         0.1431
     24 H8          1.3741   -7.8048    0.4371 H         1 <0>         0.1931
     25 H9          4.1471    1.8382   -0.6388 H         1 <0>         0.1386
     26 H10         3.1075    3.2524   -0.9349 H         1 <0>         0.1406
     27 H11         2.6851    3.3496    1.4100 H         1 <0>         0.4352
     28 H12         3.6474    2.0405    1.6842 H         1 <0>         0.4344
     29 H13         4.3042    3.4420    1.1190 H         1 <0>         0.4369
     30 H14        -1.3851   -2.6578    1.7364 H         1 <0>         0.3573
@<TRIPOS>BOND
     1    1    6 ar
     2    1    2 ar
     3    1   17 1
     4    2    3 ar
     5    2   18 1
     6    3    4 ar
     7    3   15 1
     8    4    5 ar
     9    4   19 1
    10    5    6 ar
    11    5    7 1
    12    6   20 1
    13    7    8 1
    14    7   21 1
    15    8    9 2
    16    8   10 1
    17    9   30 1
    18   10   14 1
    19   10   11 2
    20   11   12 1
    21   11   22 1
    22   12   13 2
    23   12   23 1
    24   13   14 1
    25   13   24 1
    26   15   16 1
    27   15   25 1
    28   15   26 1
    29   16   27 1
    30   16   28 1
    31   16   29 1
@<TRIPOS>MOLECULE
CHEMBL555715__3
   30    31     0     0     0
SMALL
USER_CHARGES

@<TRIPOS>ATOM
      1 C1         -1.1246    0.8623   -0.0285 C.ar      1 <0>        -0.0799
      2 C2         -0.3148    1.7867   -0.6630 C.ar      1 <0>        -0.1124
      3 C3          0.9377    1.4168   -1.1171 C.ar      1 <0>        -0.1417
      4 C4          1.3842    0.1219   -0.9383 C.ar      1 <0>        -0.1270
      5 C5          0.5737   -0.8087   -0.3011 C.ar      1 <0>         0.1699
      6 C6         -0.6842   -0.4337    0.1539 C.ar      1 <0>        -0.1271
      7 N1          1.0223   -2.1201   -0.1189 N.pl3     1 <0>        -0.7055
      8 C7          0.7547   -2.7837    1.0626 C.2       1 <0>         0.5012
      9 N2          0.1878   -2.1493    2.0544 N.2       1 <0>        -0.7250
     10 C8          1.1080   -4.2046    1.2044 C.2       1 <0>        -0.1993
     11 C9          0.9231   -5.0451    2.2876 C.2       1 <0>        -0.0620
     12 C10         1.3612   -6.3399    2.1221 C.2       1 <0>        -0.1823
     13 C11         1.9279   -6.6970    0.9453 C.2       1 <0>        -0.2126
     14 S1          1.8788   -5.2940    0.0226 S.3       1 <0>         0.1969
     15 C12         1.8164    2.4272   -1.8083 C.3       1 <0>         0.0481
     16 N3          2.6502    3.1137   -0.8125 N.4       1 <0>        -0.6369
     17 H1         -2.1008    1.1555    0.3286 H         1 <0>         0.1433
     18 H2         -0.6617    2.7996   -0.8044 H         1 <0>         0.1366
     19 H3          2.3623   -0.1666   -1.2938 H         1 <0>         0.1370
     20 H4         -1.3169   -1.1549    0.6498 H         1 <0>         0.1419
     21 H5          1.5216   -2.5641   -0.8222 H         1 <0>         0.4105
     22 H6          0.0407   -1.1922    1.9971 H         1 <0>         0.3427
     23 H7          0.4645   -4.7070    3.2051 H         1 <0>         0.1536
     24 H8          1.2547   -7.0603    2.9196 H         1 <0>         0.1433
     25 H9          2.3179   -7.6637    0.6629 H         1 <0>         0.1931
     26 H10         2.4563    1.9191   -2.5298 H         1 <0>         0.1410
     27 H11         1.1935    3.1569   -2.3257 H         1 <0>         0.1432
     28 H12         3.2268    2.4382   -0.3336 H         1 <0>         0.4349
     29 H13         3.2385    3.7902   -1.2753 H         1 <0>         0.4389
     30 H14         2.0578    3.5840   -0.1446 H         1 <0>         0.4357
@<TRIPOS>BOND
     1    1    6 ar
     2    1    2 ar
     3    1   17 1
     4    2    3 ar
     5    2   18 1
     6    3    4 ar
     7    3   15 1
     8    4    5 ar
     9    4   19 1
    10    5    6 ar
    11    5    7 1
    12    6   20 1
    13    7    8 1
    14    7   21 1
    15    8    9 2
    16    8   10 1
    17    9   22 1
    18   10   14 1
    19   10   11 2
    20   11   12 1
    21   11   23 1
    22   12   13 2
    23   12   24 1
    24   13   14 1
    25   13   25 1
    26   15   16 1
    27   15   26 1
    28   15   27 1
    29   16   28 1
    30   16   29 1
    31   16   30 1
@<TRIPOS>MOLECULE
CHEMBL87529
   61    64     0     0     0
SMALL
USER_CHARGES

@<TRIPOS>ATOM
      1 C1         -0.0167    1.3781    0.0096 C.ar      1 <0>        -0.1020
      2 C2          1.1709    2.0855    0.0021 C.ar      1 <0>        -0.1132
      3 C3          2.3773    1.4107   -0.0130 C.ar      1 <0>        -0.1103
      4 C4          2.3960    0.0285   -0.0201 C.ar      1 <0>        -0.1118
      5 C5          1.2084   -0.6789   -0.0117 C.ar      1 <0>        -0.1100
      6 C6          0.0021   -0.0041    0.0020 C.ar      1 <0>        -0.1132
      7 C7          3.7112   -0.7071   -0.0376 C.3       1 <0>        -0.0979
      8 C8          4.1714   -0.9633    1.3989 C.3       1 <0>        -0.0055
      9 N1          5.4533   -1.6804    1.3819 N.4       1 <0>        -0.3870
     10 C9          5.2618   -3.0111    0.7903 C.3       1 <0>        -0.0078
     11 C10         6.6006   -3.7514    0.7551 C.3       1 <0>         0.0277
     12 N2          7.1249   -3.8751    2.1226 N.3       1 <0>        -0.5391
     13 C11         7.2983   -2.5512    2.7369 C.3       1 <0>         0.0211
     14 C12         5.9537   -1.8208    2.7557 C.3       1 <0>        -0.0026
     15 C13         8.3842   -4.6313    2.1373 C.3       1 <0>         0.0607
     16 C14         8.7684   -4.9542    3.5826 C.3       1 <0>        -0.0889
     17 C15        10.0603   -5.7300    3.5976 C.ar      1 <0>        -0.0451
     18 C16        10.0352   -7.1115    3.5331 C.ar      1 <0>        -0.1051
     19 C17        11.2152   -7.8271    3.5465 C.ar      1 <0>        -0.0619
     20 C18        12.4336   -7.1552    3.6252 C.ar      1 <0>        -0.1031
     21 C19        12.4529   -5.7632    3.6901 C.ar      1 <0>        -0.0933
     22 C20        11.2669   -5.0576    3.6702 C.ar      1 <0>        -0.1073
     23 C21        13.7053   -7.9188    3.6405 C.ar      1 <0>         0.2315
     24 C22        13.6756   -9.3085    3.5700 C.ar      1 <0>        -0.1642
     25 C23        14.8693  -10.0127    3.5845 C.ar      1 <0>         0.0433
     26 C24        16.0558   -9.3042    3.6691 C.ar      1 <0>        -0.1985
     27 C25        16.0160   -7.9147    3.7367 C.ar      1 <0>         0.4591
     28 N3         14.8609   -7.2700    3.7157 N.ar      1 <0>        -0.5091
     29 N4         17.2028   -7.1964    3.8223 N.pl3     1 <0>        -0.8199
     30 H1         -0.9591    1.9053    0.0259 H         1 <0>         0.1311
     31 H2          1.1563    3.1654    0.0076 H         1 <0>         0.1303
     32 H3          3.3051    1.9634   -0.0196 H         1 <0>         0.1233
     33 H4          1.2231   -1.7588   -0.0176 H         1 <0>         0.1234
     34 H5         -0.9258   -0.5567    0.0082 H         1 <0>         0.1304
     35 H6          3.5884   -1.6586   -0.5549 H         1 <0>         0.0940
     36 H7          4.4573   -0.1052   -0.5563 H         1 <0>         0.0937
     37 H8          4.2941   -0.0118    1.9163 H         1 <0>         0.1337
     38 H9          3.4252   -1.5652    1.9176 H         1 <0>         0.1334
     39 H10         4.5496   -3.5767    1.3911 H         1 <0>         0.1399
     40 H11         4.8781   -2.9058   -0.2245 H         1 <0>         0.1387
     41 H12         6.4560   -4.7445    0.3299 H         1 <0>         0.1247
     42 H13         7.3090   -3.1930    0.1432 H         1 <0>         0.0616
     43 H14         7.6627   -2.6687    3.7574 H         1 <0>         0.1244
     44 H15         8.0182   -1.9730    2.1576 H         1 <0>         0.0615
     45 H16         6.0830   -0.8330    3.1980 H         1 <0>         0.1370
     46 H17         5.2380   -2.3925    3.3464 H         1 <0>         0.1392
     47 H18         8.2575   -5.5589    1.5791 H         1 <0>         0.0924
     48 H19         9.1716   -4.0347    1.6766 H         1 <0>         0.0491
     49 H20         8.8951   -4.0266    4.1408 H         1 <0>         0.0816
     50 H21         7.9810   -5.5508    4.0432 H         1 <0>         0.0967
     51 H22         9.0904   -7.6312    3.4724 H         1 <0>         0.1444
     52 H23        11.1944   -8.9057    3.4964 H         1 <0>         0.1449
     53 H24        13.3943   -5.2374    3.7512 H         1 <0>         0.1224
     54 H25        11.2809   -3.9787    3.7156 H         1 <0>         0.1369
     55 H26        12.7332   -9.8322    3.5052 H         1 <0>         0.1806
     56 H27        14.8739  -11.0914    3.5313 H         1 <0>         0.1802
     57 H28        17.0022   -9.8243    3.6829 H         1 <0>         0.1835
     58 H29        18.0528   -7.6636    3.8346 H         1 <0>         0.4434
     59 H30        17.1811   -6.2278    3.8696 H         1 <0>         0.4210
     60 H31         6.1215   -1.1614    0.8322 H         1 <0>         0.4202
     61 H32        14.8582   -6.3010    3.7602 H         1 <0>         0.4355
@<TRIPOS>BOND
     1    1    6 ar
     2    1    2 ar
     3    1   30 1
     4    2    3 ar
     5    2   31 1
     6    3    4 ar
     7    3   32 1
     8    4    5 ar
     9    4    7 1
    10    5    6 ar
    11    5   33 1
    12    6   34 1
    13    7    8 1
    14    7   35 1
    15    7   36 1
    16    8    9 1
    17    8   37 1
    18    8   38 1
    19    9   14 1
    20    9   10 1
    21    9   60 1
    22   10   11 1
    23   10   39 1
    24   10   40 1
    25   11   12 1
    26   11   41 1
    27   11   42 1
    28   12   13 1
    29   12   15 1
    30   13   14 1
    31   13   43 1
    32   13   44 1
    33   14   45 1
    34   14   46 1
    35   15   16 1
    36   15   47 1
    37   15   48 1
    38   16   17 1
    39   16   49 1
    40   16   50 1
    41   17   22 ar
    42   17   18 ar
    43   18   19 ar
    44   18   51 1
    45   19   20 ar
    46   19   52 1
    47   20   21 ar
    48   20   23 1
    49   21   22 ar
    50   21   53 1
    51   22   54 1
    52   23   28 ar
    53   23   24 ar
    54   24   25 ar
    55   24   55 1
    56   25   26 ar
    57   25   56 1
    58   26   27 ar
    59   26   57 1
    60   27   28 ar
    61   27   29 1
    62   28   61 1
    63   29   58 1
    64   29   59 1
@<TRIPOS>MOLECULE
CHEMBL87529__1
   60    63     0     0     0
SMALL
USER_CHARGES

@<TRIPOS>ATOM
      1 C1         -0.0167    1.3781    0.0096 C.ar      1 <0>        -0.1041
      2 C2          1.1709    2.0855    0.0021 C.ar      1 <0>        -0.1140
      3 C3          2.3773    1.4107   -0.0130 C.ar      1 <0>        -0.1103
      4 C4          2.3960    0.0285   -0.0201 C.ar      1 <0>        -0.1086
      5 C5          1.2084   -0.6789   -0.0117 C.ar      1 <0>        -0.1098
      6 C6          0.0021   -0.0041    0.0020 C.ar      1 <0>        -0.1138
      7 C7          3.7112   -0.7071   -0.0376 C.3       1 <0>        -0.0993
      8 C8          4.1714   -0.9633    1.3989 C.3       1 <0>        -0.0048
      9 N1          5.4533   -1.6804    1.3819 N.4       1 <0>        -0.3869
     10 C9          5.2618   -3.0111    0.7903 C.3       1 <0>        -0.0066
     11 C10         6.6006   -3.7514    0.7551 C.3       1 <0>         0.0265
     12 N2          7.1249   -3.8751    2.1226 N.3       1 <0>        -0.5393
     13 C11         7.2983   -2.5512    2.7369 C.3       1 <0>         0.0206
     14 C12         5.9537   -1.8208    2.7557 C.3       1 <0>        -0.0017
     15 C13         8.3842   -4.6313    2.1373 C.3       1 <0>         0.0601
     16 C14         8.7684   -4.9542    3.5826 C.3       1 <0>        -0.0755
     17 C15        10.0603   -5.7300    3.5976 C.ar      1 <0>        -0.0851
     18 C16        10.0352   -7.1115    3.5331 C.ar      1 <0>        -0.1185
     19 C17        11.2152   -7.8271    3.5465 C.ar      1 <0>        -0.0749
     20 C18        12.4336   -7.1552    3.6252 C.ar      1 <0>        -0.0419
     21 C19        12.4529   -5.7632    3.6901 C.ar      1 <0>        -0.0952
     22 C20        11.2669   -5.0576    3.6702 C.ar      1 <0>        -0.1194
     23 C21        13.7053   -7.9188    3.6405 C.ar      1 <0>         0.2088
     24 C22        14.9167   -7.2388    3.7252 C.ar      1 <0>        -0.2223
     25 C23        16.0992   -7.9616    3.7392 C.ar      1 <0>        -0.0292
     26 C24        16.0327   -9.3427    3.6681 C.ar      1 <0>        -0.2370
     27 C25        14.7888   -9.9613    3.5851 C.ar      1 <0>         0.4110
     28 N3         13.6767   -9.2446    3.5788 N.ar      1 <0>        -0.5404
     29 N4         14.7138  -11.3473    3.5129 N.pl3     1 <0>        -0.8507
     30 H1         -0.9591    1.9053    0.0259 H         1 <0>         0.1298
     31 H2          1.1563    3.1654    0.0076 H         1 <0>         0.1294
     32 H3          3.3051    1.9634   -0.0196 H         1 <0>         0.1238
     33 H4          1.2231   -1.7588   -0.0176 H         1 <0>         0.1239
     34 H5         -0.9258   -0.5567    0.0082 H         1 <0>         0.1296
     35 H6          3.5884   -1.6586   -0.5549 H         1 <0>         0.0946
     36 H7          4.4573   -0.1052   -0.5563 H         1 <0>         0.0939
     37 H8          4.2941   -0.0118    1.9163 H         1 <0>         0.1324
     38 H9          3.4252   -1.5652    1.9176 H         1 <0>         0.1323
     39 H10         4.5496   -3.5767    1.3911 H         1 <0>         0.1385
     40 H11         4.8781   -2.9058   -0.2245 H         1 <0>         0.1361
     41 H12         6.4560   -4.7445    0.3299 H         1 <0>         0.1237
     42 H13         7.3090   -3.1930    0.1432 H         1 <0>         0.0607
     43 H14         7.6627   -2.6687    3.7574 H         1 <0>         0.1260
     44 H15         8.0182   -1.9730    2.1576 H         1 <0>         0.0611
     45 H16         6.0830   -0.8330    3.1980 H         1 <0>         0.1353
     46 H17         5.2380   -2.3925    3.3464 H         1 <0>         0.1380
     47 H18         8.2575   -5.5589    1.5791 H         1 <0>         0.0909
     48 H19         9.1716   -4.0347    1.6766 H         1 <0>         0.0494
     49 H20         8.8951   -4.0266    4.1408 H         1 <0>         0.0726
     50 H21         7.9810   -5.5508    4.0432 H         1 <0>         0.0860
     51 H22         9.0904   -7.6312    3.4724 H         1 <0>         0.1254
     52 H23        11.1944   -8.9057    3.4964 H         1 <0>         0.1362
     53 H24        13.3943   -5.2374    3.7512 H         1 <0>         0.1302
     54 H25        11.2809   -3.9787    3.7156 H         1 <0>         0.1225
     55 H26        14.9350   -6.1603    3.7790 H         1 <0>         0.1334
     56 H27        17.0525   -7.4581    3.8039 H         1 <0>         0.1375
     57 H28        16.9365   -9.9338    3.6766 H         1 <0>         0.1336
     58 H29        15.5257  -11.8780    3.5205 H         1 <0>         0.4107
     59 H30        13.8495  -11.7839    3.4549 H         1 <0>         0.4046
     60 H31         6.1215   -1.1614    0.8322 H         1 <0>         0.4201
@<TRIPOS>BOND
     1    1    6 ar
     2    1    2 ar
     3    1   30 1
     4    2    3 ar
     5    2   31 1
     6    3    4 ar
     7    3   32 1
     8    4    5 ar
     9    4    7 1
    10    5    6 ar
    11    5   33 1
    12    6   34 1
    13    7    8 1
    14    7   35 1
    15    7   36 1
    16    8    9 1
    17    8   37 1
    18    8   38 1
    19    9   14 1
    20    9   10 1
    21    9   60 1
    22   10   11 1
    23   10   39 1
    24   10   40 1
    25   11   12 1
    26   11   41 1
    27   11   42 1
    28   12   13 1
    29   12   15 1
    30   13   14 1
    31   13   43 1
    32   13   44 1
    33   14   45 1
    34   14   46 1
    35   15   16 1
    36   15   47 1
    37   15   48 1
    38   16   17 1
    39   16   49 1
    40   16   50 1
    41   17   22 ar
    42   17   18 ar
    43   18   19 ar
    44   18   51 1
    45   19   20 ar
    46   19   52 1
    47   20   21 ar
    48   20   23 1
    49   21   22 ar
    50   21   53 1
    51   22   54 1
    52   23   28 ar
    53   23   24 ar
    54   24   25 ar
    55   24   55 1
    56   25   26 ar
    57   25   56 1
    58   26   27 ar
    59   26   57 1
    60   27   28 ar
    61   27   29 1
    62   29   58 1
    63   29   59 1
@<TRIPOS>MOLECULE
CHEMBL87529__2
   61    64     0     0     0
SMALL
USER_CHARGES

@<TRIPOS>ATOM
      1 C1         -0.0167    1.3781    0.0096 C.ar      1 <0>        -0.1140
      2 C2          1.1709    2.0855    0.0021 C.ar      1 <0>        -0.1148
      3 C3          2.3773    1.4107   -0.0130 C.ar      1 <0>        -0.1140
      4 C4          2.3960    0.0285   -0.0201 C.ar      1 <0>        -0.0988
      5 C5          1.2084   -0.6789   -0.0117 C.ar      1 <0>        -0.1174
      6 C6          0.0021   -0.0041    0.0020 C.ar      1 <0>        -0.1159
      7 C7          3.7112   -0.7071   -0.0376 C.3       1 <0>        -0.0731
      8 C8          4.1714   -0.9633    1.3989 C.3       1 <0>         0.0599
      9 N1          5.4533   -1.6804    1.3819 N.3       1 <0>        -0.5392
     10 C9          5.2938   -3.0313    0.8253 C.3       1 <0>         0.0191
     11 C10         6.6586   -3.7213    0.7699 C.3       1 <0>        -0.0010
     12 N2          7.2258   -3.7944    2.1228 N.4       1 <0>        -0.3873
     13 C11         7.4020   -2.4370    2.6557 C.3       1 <0>        -0.0065
     14 C12         6.0435   -1.7363    2.7268 C.3       1 <0>         0.0250
     15 C13         8.5276   -4.4729    2.0717 C.3       1 <0>        -0.0046
     16 C14         9.0612   -4.6604    3.4934 C.3       1 <0>        -0.1132
     17 C15        10.3967   -5.3565    3.4409 C.ar      1 <0>        -0.0615
     18 C16        10.4556   -6.7381    3.4780 C.ar      1 <0>        -0.1000
     19 C17        11.6760   -7.3809    3.4303 C.ar      1 <0>        -0.0637
     20 C18        12.8503   -6.6354    3.3446 C.ar      1 <0>        -0.0870
     21 C19        12.7850   -5.2438    3.3076 C.ar      1 <0>        -0.0938
     22 C20        11.5588   -4.6118    3.3502 C.ar      1 <0>        -0.0988
     23 C21        14.1650   -7.3206    3.2935 C.ar      1 <0>         0.2213
     24 C22        14.2193   -8.7110    3.3257 C.ar      1 <0>        -0.1587
     25 C23        15.4526   -9.3416    3.2770 C.ar      1 <0>         0.0425
     26 C24        16.5934   -8.5610    3.1975 C.ar      1 <0>        -0.1933
     27 C25        16.4698   -7.1751    3.1690 C.ar      1 <0>         0.4613
     28 N3         15.2781   -6.6019    3.2119 N.ar      1 <0>        -0.5086
     29 N4         17.6104   -6.3847    3.0897 N.pl3     1 <0>        -0.8171
     30 H1         -0.9591    1.9053    0.0259 H         1 <0>         0.1265
     31 H2          1.1563    3.1654    0.0076 H         1 <0>         0.1263
     32 H3          3.3051    1.9634   -0.0196 H         1 <0>         0.1219
     33 H4          1.2231   -1.7588   -0.0176 H         1 <0>         0.1177
     34 H5         -0.9258   -0.5567    0.0082 H         1 <0>         0.1253
     35 H6          3.5884   -1.6586   -0.5549 H         1 <0>         0.0711
     36 H7          4.4573   -0.1052   -0.5563 H         1 <0>         0.0846
     37 H8          4.2941   -0.0118    1.9163 H         1 <0>         0.0915
     38 H9          3.4252   -1.5652    1.9176 H         1 <0>         0.0502
     39 H10         4.6200   -3.6083    1.4586 H         1 <0>         0.0626
     40 H11         4.8794   -2.9636   -0.1806 H         1 <0>         0.1280
     41 H12         6.5405   -4.7286    0.3706 H         1 <0>         0.1364
     42 H13         7.3280   -3.1513    0.1256 H         1 <0>         0.1386
     43 H14         7.8350   -2.4922    3.6545 H         1 <0>         0.1351
     44 H15         8.0676   -1.8736    2.0018 H         1 <0>         0.1389
     45 H16         6.1759   -0.7238    3.1082 H         1 <0>         0.1252
     46 H17         5.3820   -2.2920    3.3914 H         1 <0>         0.0619
     47 H18         8.4114   -5.4466    1.5959 H         1 <0>         0.1346
     48 H19         9.2298   -3.8691    1.4968 H         1 <0>         0.1332
     49 H20         9.1774   -3.6867    3.9692 H         1 <0>         0.1039
     50 H21         8.3591   -5.2643    4.0683 H         1 <0>         0.1050
     51 H22         9.5449   -7.3147    3.5448 H         1 <0>         0.1452
     52 H23        11.7208   -8.4595    3.4596 H         1 <0>         0.1482
     53 H24        13.6920   -4.6612    3.2412 H         1 <0>         0.1269
     54 H25        11.5068   -3.5335    3.3168 H         1 <0>         0.1420
     55 H26        13.3109   -9.2918    3.3883 H         1 <0>         0.1809
     56 H27        15.5223  -10.4190    3.3008 H         1 <0>         0.1817
     57 H28        17.5689   -9.0227    3.1583 H         1 <0>         0.1853
     58 H29        18.4865   -6.7996    3.0546 H         1 <0>         0.4446
     59 H30        17.5302   -5.4182    3.0695 H         1 <0>         0.4220
     60 H31         6.6004   -4.3121    2.7220 H         1 <0>         0.4222
     61 H32        15.2166   -5.6342    3.1870 H         1 <0>         0.4358
@<TRIPOS>BOND
     1    1    6 ar
     2    1    2 ar
     3    1   30 1
     4    2    3 ar
     5    2   31 1
     6    3    4 ar
     7    3   32 1
     8    4    5 ar
     9    4    7 1
    10    5    6 ar
    11    5   33 1
    12    6   34 1
    13    7    8 1
    14    7   35 1
    15    7   36 1
    16    8    9 1
    17    8   37 1
    18    8   38 1
    19    9   14 1
    20    9   10 1
    21   10   11 1
    22   10   39 1
    23   10   40 1
    24   11   12 1
    25   11   41 1
    26   11   42 1
    27   12   13 1
    28   12   15 1
    29   12   60 1
    30   13   14 1
    31   13   43 1
    32   13   44 1
    33   14   45 1
    34   14   46 1
    35   15   16 1
    36   15   47 1
    37   15   48 1
    38   16   17 1
    39   16   49 1
    40   16   50 1
    41   17   22 ar
    42   17   18 ar
    43   18   19 ar
    44   18   51 1
    45   19   20 ar
    46   19   52 1
    47   20   21 ar
    48   20   23 1
    49   21   22 ar
    50   21   53 1
    51   22   54 1
    52   23   28 ar
    53   23   24 ar
    54   24   25 ar
    55   24   55 1
    56   25   26 ar
    57   25   56 1
    58   26   27 ar
    59   26   57 1
    60   27   28 ar
    61   27   29 1
    62   28   61 1
    63   29   58 1
    64   29   59 1
@<TRIPOS>MOLECULE
CHEMBL87529__3
   60    63     0     0     0
SMALL
USER_CHARGES

@<TRIPOS>ATOM
      1 C1         -0.0167    1.3781    0.0096 C.ar      1 <0>        -0.1161
      2 C2          1.1709    2.0855    0.0021 C.ar      1 <0>        -0.1156
      3 C3          2.3773    1.4107   -0.0130 C.ar      1 <0>        -0.1139
      4 C4          2.3960    0.0285   -0.0201 C.ar      1 <0>        -0.0957
      5 C5          1.2084   -0.6789   -0.0117 C.ar      1 <0>        -0.1173
      6 C6          0.0021   -0.0041    0.0020 C.ar      1 <0>        -0.1166
      7 C7          3.7112   -0.7071   -0.0376 C.3       1 <0>        -0.0745
      8 C8          4.1714   -0.9633    1.3989 C.3       1 <0>         0.0606
      9 N1          5.4533   -1.6804    1.3819 N.3       1 <0>        -0.5394
     10 C9          5.2938   -3.0313    0.8253 C.3       1 <0>         0.0206
     11 C10         6.6586   -3.7213    0.7699 C.3       1 <0>        -0.0015
     12 N2          7.2258   -3.7944    2.1228 N.4       1 <0>        -0.3869
     13 C11         7.4020   -2.4370    2.6557 C.3       1 <0>        -0.0065
     14 C12         6.0435   -1.7363    2.7268 C.3       1 <0>         0.0264
     15 C13         8.5276   -4.4729    2.0717 C.3       1 <0>        -0.0056
     16 C14         9.0612   -4.6604    3.4934 C.3       1 <0>        -0.0999
     17 C15        10.3967   -5.3565    3.4409 C.ar      1 <0>        -0.1009
     18 C16        10.4556   -6.7381    3.4780 C.ar      1 <0>        -0.1136
     19 C17        11.6760   -7.3809    3.4303 C.ar      1 <0>        -0.0761
     20 C18        12.8503   -6.6354    3.3446 C.ar      1 <0>        -0.0258
     21 C19        12.7850   -5.2438    3.3076 C.ar      1 <0>        -0.0954
     22 C20        11.5588   -4.6118    3.3502 C.ar      1 <0>        -0.1107
     23 C21        14.1650   -7.3206    3.2935 C.ar      1 <0>         0.2002
     24 C22        15.3324   -6.5669    3.2137 C.ar      1 <0>        -0.2187
     25 C23        16.5558   -7.2168    3.1669 C.ar      1 <0>        -0.0290
     26 C24        16.5728   -8.6008    3.2014 C.ar      1 <0>        -0.2319
     27 C25        15.3693   -9.2949    3.2815 C.ar      1 <0>         0.4116
     28 N3         14.2171   -8.6465    3.3297 N.ar      1 <0>        -0.5397
     29 N4         15.3782  -10.6845    3.3160 N.pl3     1 <0>        -0.8497
     30 H1         -0.9591    1.9053    0.0259 H         1 <0>         0.1252
     31 H2          1.1563    3.1654    0.0076 H         1 <0>         0.1254
     32 H3          3.3051    1.9634   -0.0196 H         1 <0>         0.1224
     33 H4          1.2231   -1.7588   -0.0176 H         1 <0>         0.1181
     34 H5         -0.9258   -0.5567    0.0082 H         1 <0>         0.1243
     35 H6          3.5884   -1.6586   -0.5549 H         1 <0>         0.0716
     36 H7          4.4573   -0.1052   -0.5563 H         1 <0>         0.0850
     37 H8          4.2941   -0.0118    1.9163 H         1 <0>         0.0903
     38 H9          3.4252   -1.5652    1.9176 H         1 <0>         0.0486
     39 H10         4.6200   -3.6083    1.4586 H         1 <0>         0.0609
     40 H11         4.8794   -2.9636   -0.1806 H         1 <0>         0.1254
     41 H12         6.5405   -4.7286    0.3706 H         1 <0>         0.1355
     42 H13         7.3280   -3.1513    0.1256 H         1 <0>         0.1381
     43 H14         7.8350   -2.4922    3.6545 H         1 <0>         0.1367
     44 H15         8.0676   -1.8736    2.0018 H         1 <0>         0.1387
     45 H16         6.1759   -0.7238    3.1082 H         1 <0>         0.1236
     46 H17         5.3820   -2.2920    3.3914 H         1 <0>         0.0605
     47 H18         8.4114   -5.4466    1.5959 H         1 <0>         0.1330
     48 H19         9.2298   -3.8691    1.4968 H         1 <0>         0.1330
     49 H20         9.1774   -3.6867    3.9692 H         1 <0>         0.0954
     50 H21         8.3591   -5.2643    4.0683 H         1 <0>         0.0947
     51 H22         9.5449   -7.3147    3.5448 H         1 <0>         0.1265
     52 H23        11.7208   -8.4595    3.4596 H         1 <0>         0.1398
     53 H24        13.6920   -4.6612    3.2412 H         1 <0>         0.1349
     54 H25        11.5068   -3.5335    3.3168 H         1 <0>         0.1279
     55 H26        15.2855   -5.4883    3.1882 H         1 <0>         0.1343
     56 H27        17.4763   -6.6554    3.1045 H         1 <0>         0.1393
     57 H28        17.5102   -9.1360    3.1661 H         1 <0>         0.1354
     58 H29        16.2201  -11.1650    3.2843 H         1 <0>         0.4118
     59 H30        14.5424  -11.1736    3.3718 H         1 <0>         0.4049
     60 H31         6.6004   -4.3121    2.7220 H         1 <0>         0.4201
@<TRIPOS>BOND
     1    1    6 ar
     2    1    2 ar
     3    1   30 1
     4    2    3 ar
     5    2   31 1
     6    3    4 ar
     7    3   32 1
     8    4    5 ar
     9    4    7 1
    10    5    6 ar
    11    5   33 1
    12    6   34 1
    13    7    8 1
    14    7   35 1
    15    7   36 1
    16    8    9 1
    17    8   37 1
    18    8   38 1
    19    9   14 1
    20    9   10 1
    21   10   11 1
    22   10   39 1
    23   10   40 1
    24   11   12 1
    25   11   41 1
    26   11   42 1
    27   12   13 1
    28   12   15 1
    29   12   60 1
    30   13   14 1
    31   13   43 1
    32   13   44 1
    33   14   45 1
    34   14   46 1
    35   15   16 1
    36   15   47 1
    37   15   48 1
    38   16   17 1
    39   16   49 1
    40   16   50 1
    41   17   22 ar
    42   17   18 ar
    43   18   19 ar
    44   18   51 1
    45   19   20 ar
    46   19   52 1
    47   20   21 ar
    48   20   23 1
    49   21   22 ar
    50   21   53 1
    51   22   54 1
    52   23   28 ar
    53   23   24 ar
    54   24   25 ar
    55   24   55 1
    56   25   26 ar
    57   25   56 1
    58   26   27 ar
    59   26   57 1
    60   27   28 ar
    61   27   29 1
    62   29   58 1
    63   29   59 1
@<TRIPOS>MOLECULE
CHEMBL365849
   22    23     0     0     0
SMALL
USER_CHARGES

@<TRIPOS>ATOM
      1 C1         -0.0189    1.5437    0.0105 C.3       1 <0>        -0.1247
      2 C2          1.4707    1.9418   -0.0016 C.3       1 <0>        -0.1239
      3 C3          2.2513    0.7585    0.5919 C.3       1 <0>        -0.0995
      4 C4          3.0580    0.0730   -0.5335 C.3       1 <0>         0.0730
      5 N1          2.8465   -1.3658   -0.3442 N.pl3     1 <0>        -0.6084
      6 C5          1.8511   -1.6169    0.4306 C.cat     1 <0>         0.5235
      7 C6          1.2015   -0.3426    0.9180 C.3       1 <0>        -0.0938
      8 C7          0.0021   -0.0041    0.0020 C.3       1 <0>        -0.1181
      9 N2          1.4335   -2.8768    0.7698 N.pl3     1 <0>        -0.7775
     10 H1         -0.5054    1.9137    0.9130 H         1 <0>         0.0840
     11 H2         -0.5225    1.9233   -0.8785 H         1 <0>         0.0870
     12 H3          1.7982    2.1290   -1.0242 H         1 <0>         0.0835
     13 H4          1.6235    2.8323    0.6081 H         1 <0>         0.0894
     14 H5          2.8571    1.0407    1.4530 H         1 <0>         0.1261
     15 H6          2.6843    0.3842   -1.5090 H         1 <0>         0.1200
     16 H7          4.1168    0.3143   -0.4396 H         1 <0>         0.1239
     17 H8          0.9394   -0.3804    1.9754 H         1 <0>         0.1487
     18 H9         -0.9236   -0.4042    0.4157 H         1 <0>         0.0951
     19 H10         0.1692   -0.3815   -1.0068 H         1 <0>         0.0791
     20 H11         1.8984   -3.6526    0.4193 H         1 <0>         0.4290
     21 H12         0.6729   -2.9931    1.3605 H         1 <0>         0.4459
     22 H13         3.3954   -2.0509   -0.7569 H         1 <0>         0.4378
@<TRIPOS>BOND
     1    1    8 1
     2    1    2 1
     3    1   10 1
     4    1   11 1
     5    2    3 1
     6    2   12 1
     7    2   13 1
     8    3    7 1
     9    3    4 1
    10    3   14 1
    11    4    5 1
    12    4   15 1
    13    4   16 1
    14    5    6 2
    15    5   22 1
    16    6    7 1
    17    6    9 1
    18    7    8 1
    19    7   17 1
    20    8   18 1
    21    8   19 1
    22    9   20 1
    23    9   21 1
@<TRIPOS>MOLECULE
CHEMBL365849__1
   22    23     0     0     0
SMALL
USER_CHARGES

@<TRIPOS>ATOM
      1 C1         -0.0191    1.5538    0.0106 C.3       1 <0>        -0.1246
      2 C2          1.4828    1.9990   -0.0014 C.3       1 <0>        -0.1003
      3 C3          2.1423    0.8049    0.5899 C.3       1 <0>        -0.1162
      4 C4          3.5389    0.2842    0.5390 C.3       1 <0>         0.1070
      5 N1          3.2947   -1.1617    0.8420 N.pl3     1 <0>        -0.6312
      6 C5          2.0996   -1.5243    0.4309 C.cat     1 <0>         0.5339
      7 C6          1.4658   -0.3531   -0.2598 C.3       1 <0>        -0.1289
      8 C7          0.0021   -0.0041    0.0020 C.3       1 <0>        -0.1156
      9 N2          1.5312   -2.7589    0.6035 N.pl3     1 <0>        -0.7657
     10 H1         -0.5125    1.9185    0.9115 H         1 <0>         0.0832
     11 H2         -0.5296    1.9282   -0.8767 H         1 <0>         0.0871
     12 H3          1.8312    2.1756   -1.0190 H         1 <0>         0.0875
     13 H4          1.6355    2.8800    0.6219 H         1 <0>         0.0929
     14 H5          1.7799    0.6865    1.6110 H         1 <0>         0.0945
     15 H6          3.9727    0.4125   -0.4527 H         1 <0>         0.1217
     16 H7          4.1619    0.7485    1.3035 H         1 <0>         0.1292
     17 H8          1.7232   -0.3112   -1.3182 H         1 <0>         0.1571
     18 H9         -0.3172   -0.3958    0.9678 H         1 <0>         0.0812
     19 H10        -0.6315   -0.3903   -0.7964 H         1 <0>         0.0918
     20 H11         2.0201   -3.4576    1.0657 H         1 <0>         0.4297
     21 H12         0.6399   -2.9342    0.2634 H         1 <0>         0.4471
     22 H13         3.9300   -1.7492    1.2802 H         1 <0>         0.4383
@<TRIPOS>BOND
     1    1    8 1
     2    1    2 1
     3    1   10 1
     4    1   11 1
     5    2    3 1
     6    2   12 1
     7    2   13 1
     8    3    7 1
     9    3    4 1
    10    3   14 1
    11    4    5 1
    12    4   15 1
    13    4   16 1
    14    5    6 2
    15    5   22 1
    16    6    7 1
    17    6    9 1
    18    7    8 1
    19    7   17 1
    20    8   18 1
    21    8   19 1
    22    9   20 1
    23    9   21 1
@<TRIPOS>MOLECULE
CHEMBL365849__2
   22    23     0     0     0
SMALL
USER_CHARGES

@<TRIPOS>ATOM
      1 C1         -0.0192    1.5613    0.0106 C.3       1 <0>        -0.1237
      2 C2          1.4750    2.0055   -0.0013 C.3       1 <0>        -0.1139
      3 C3          2.2479    0.7286   -0.2253 C.3       1 <0>        -0.1056
      4 C4          3.5366    0.3866    0.5053 C.3       1 <0>         0.0953
      5 N1          3.4421   -1.1039    0.5731 N.pl3     1 <0>        -0.6349
      6 C5          2.1784   -1.4861    0.5878 C.cat     1 <0>         0.5554
      7 C6          1.3486   -0.2852    0.5867 C.3       1 <0>        -0.1517
      8 C7          0.0021   -0.0041    0.0020 C.3       1 <0>        -0.1002
      9 N2          1.7265   -2.7794    0.6016 N.pl3     1 <0>        -0.7651
     10 H1         -0.5128    1.9259    0.9115 H         1 <0>         0.0842
     11 H2         -0.5299    1.9355   -0.8766 H         1 <0>         0.0868
     12 H3          1.6565    2.7078   -0.8149 H         1 <0>         0.0913
     13 H4          1.7467    2.4518    0.9553 H         1 <0>         0.0846
     14 H5          2.2990    0.4751   -1.2841 H         1 <0>         0.1141
     15 H6          4.4083    0.6987   -0.0698 H         1 <0>         0.1279
     16 H7          3.5499    0.8247    1.5034 H         1 <0>         0.1203
     17 H8          1.3347    0.1001    1.6062 H         1 <0>         0.1409
     18 H9         -0.7901   -0.4095    0.6314 H         1 <0>         0.0907
     19 H10        -0.0716   -0.3907   -1.0144 H         1 <0>         0.0863
     20 H11         2.3595   -3.5144    0.6015 H         1 <0>         0.4303
     21 H12         0.7735   -2.9601    0.6115 H         1 <0>         0.4476
     22 H13         4.2024   -1.7056    0.6017 H         1 <0>         0.4393
@<TRIPOS>BOND
     1    1    8 1
     2    1    2 1
     3    1   10 1
     4    1   11 1
     5    2    3 1
     6    2   12 1
     7    2   13 1
     8    3    7 1
     9    3    4 1
    10    3   14 1
    11    4    5 1
    12    4   15 1
    13    4   16 1
    14    5    6 2
    15    5   22 1
    16    6    7 1
    17    6    9 1
    18    7    8 1
    19    7   17 1
    20    8   18 1
    21    8   19 1
    22    9   20 1
    23    9   21 1
@<TRIPOS>MOLECULE
CHEMBL365849__3
   22    23     0     0     0
SMALL
USER_CHARGES

@<TRIPOS>ATOM
      1 C1         -0.0189    1.5437    0.0105 C.3       1 <0>        -0.1247
      2 C2          1.4707    1.9418   -0.0016 C.3       1 <0>        -0.1239
      3 C3          2.2397    0.7650   -0.6225 C.3       1 <0>        -0.0995
      4 C4          3.0677    0.0675    0.4799 C.3       1 <0>         0.0729
      5 N1          2.8524   -1.3692    0.2793 N.pl3     1 <0>        -0.6083
      6 C5          1.8425   -1.6120   -0.4791 C.cat     1 <0>         0.5236
      7 C6          1.1838   -0.3327   -0.9403 C.3       1 <0>        -0.0939
      8 C7          0.0021   -0.0041    0.0020 C.3       1 <0>        -0.1181
      9 N2          1.4188   -2.8682   -0.8244 N.pl3     1 <0>        -0.7775
     10 H1         -0.5054    1.9137    0.9130 H         1 <0>         0.0870
     11 H2         -0.5225    1.9233   -0.8785 H         1 <0>         0.0840
     12 H3          1.6119    2.8389   -0.6044 H         1 <0>         0.0894
     13 H4          1.8177    2.1180    1.0166 H         1 <0>         0.0835
     14 H5          2.8290    1.0565   -1.4919 H         1 <0>         0.1260
     15 H6          4.1245    0.3100    0.3684 H         1 <0>         0.1239
     16 H7          2.7127    0.3682    1.4656 H         1 <0>         0.1200
     17 H8          0.9015   -0.3591   -1.9928 H         1 <0>         0.1487
     18 H9          0.1884   -0.3923    1.0033 H         1 <0>         0.0791
     19 H10        -0.9314   -0.3998   -0.3982 H         1 <0>         0.0951
     20 H11         1.8902   -3.6477   -0.4912 H         1 <0>         0.4290
     21 H12         0.6475   -2.9782   -1.4023 H         1 <0>         0.4459
     22 H13         3.4091   -2.0586    0.6740 H         1 <0>         0.4378
@<TRIPOS>BOND
     1    1    8 1
     2    1    2 1
     3    1   10 1
     4    1   11 1
     5    2    3 1
     6    2   12 1
     7    2   13 1
     8    3    7 1
     9    3    4 1
    10    3   14 1
    11    4    5 1
    12    4   15 1
    13    4   16 1
    14    5    6 2
    15    5   22 1
    16    6    7 1
    17    6    9 1
    18    7    8 1
    19    7   17 1
    20    8   18 1
    21    8   19 1
    22    9   20 1
    23    9   21 1
@<TRIPOS>MOLECULE
CHEMBL510760
   41    42     0     0     0
SMALL
USER_CHARGES

@<TRIPOS>ATOM
      1 C1         -0.0167    1.3788    0.0096 C.ar      1 <0>         0.0412
      2 C2          1.1946    2.0581    0.0017 C.ar      1 <0>        -0.1487
      3 C3          2.3728    1.3394   -0.0134 C.ar      1 <0>         0.1376
      4 N1          2.3606    0.0197   -0.0204 N.ar      1 <0>        -0.5110
      5 C4          1.2269   -0.6641   -0.0137 C.ar      1 <0>         0.4608
      6 C5          0.0021   -0.0041    0.0020 C.ar      1 <0>        -0.1824
      7 N2          1.2605   -2.0536   -0.0219 N.pl3     1 <0>        -0.8104
      8 C6          3.6903    2.0710   -0.0226 C.3       1 <0>        -0.0698
      9 C7          4.0891    2.4212    1.4124 C.3       1 <0>        -0.1064
     10 H1          3.2872    2.9723    1.9038 H         1 <0>         0.1336
     11 C8          4.4221    1.1387    2.2046 C.3       1 <0>        -0.0169
     12 N3          5.5616    1.5228    3.0770 N.4       1 <0>        -0.5125
     13 C9          6.4029    2.3935    2.2162 C.3       1 <0>        -0.0412
     14 C10         5.3908    3.2490    1.4198 C.3       1 <0>         0.0761
     15 H2          5.2283    4.2056    1.9164 H         1 <0>         0.1352
     16 N4          5.8689    3.4603    0.0470 N.3       1 <0>        -0.6649
     17 C11         6.6985    4.6694   -0.0413 C.3       1 <0>         0.0198
     18 C12         7.1767    4.8557   -1.4827 C.3       1 <0>        -0.0100
     19 N5          8.0062    6.0648   -1.5710 N.4       1 <0>        -0.6370
     20 H3         -0.9522    1.9182    0.0259 H         1 <0>         0.1829
     21 H4          1.2145    3.1379    0.0070 H         1 <0>         0.1818
     22 H5         -0.9214   -0.5640    0.0078 H         1 <0>         0.1879
     23 H6          2.1120   -2.5181   -0.0325 H         1 <0>         0.4230
     24 H7          0.4325   -2.5589   -0.0170 H         1 <0>         0.4486
     25 H8          4.4558    1.4353   -0.4676 H         1 <0>         0.1010
     26 H9          3.5935    2.9863   -0.6065 H         1 <0>         0.1481
     27 H10         3.5678    0.8321    2.8082 H         1 <0>         0.1453
     28 H11         4.7160    0.3381    1.5258 H         1 <0>         0.1287
     29 H12         5.2328    2.0344    3.8821 H         1 <0>         0.4445
     30 H13         7.0401    3.0317    2.8284 H         1 <0>         0.1485
     31 H14         7.0068    1.7893    1.5392 H         1 <0>         0.1377
     32 H15         6.3707    2.6522   -0.2896 H         1 <0>         0.3610
     33 H16         6.1108    5.5361    0.2614 H         1 <0>         0.1109
     34 H17         7.5609    4.5672    0.6173 H         1 <0>         0.0670
     35 H18         7.7643    3.9890   -1.7854 H         1 <0>         0.1348
     36 H19         6.3142    4.9579   -2.1413 H         1 <0>         0.1472
     37 H20         7.4623    6.8671   -1.2908 H         1 <0>         0.4412
     38 H21         8.8046    5.9702   -0.9613 H         1 <0>         0.4383
     39 H22         6.0781    0.7047    3.3634 H         1 <0>         0.4451
     40 H23         8.3216    6.1877   -2.5215 H         1 <0>         0.4507
     41 H24         3.2030   -0.4611   -0.0310 H         1 <0>         0.4325
@<TRIPOS>BOND
     1    1    6 ar
     2    1    2 ar
     3    1   20 1
     4    2    3 ar
     5    2   21 1
     6    3    4 ar
     7    3    8 1
     8    4    5 ar
     9    4   41 1
    10    5    6 ar
    11    5    7 1
    12    6   22 1
    13    7   23 1
    14    7   24 1
    15    8    9 1
    16    8   25 1
    17    8   26 1
    18    9   10 1
    19    9   14 1
    20    9   11 1
    21   11   12 1
    22   11   27 1
    23   11   28 1
    24   12   13 1
    25   12   29 1
    26   12   39 1
    27   13   14 1
    28   13   30 1
    29   13   31 1
    30   14   15 1
    31   14   16 1
    32   16   17 1
    33   16   32 1
    34   17   18 1
    35   17   33 1
    36   17   34 1
    37   18   19 1
    38   18   35 1
    39   18   36 1
    40   19   37 1
    41   19   38 1
    42   19   40 1
@<TRIPOS>MOLECULE
CHEMBL510760__1
   40    41     0     0     0
SMALL
USER_CHARGES

@<TRIPOS>ATOM
      1 C1         -0.0167    1.3788    0.0096 C.ar      1 <0>        -0.0235
      2 C2          1.1946    2.0581    0.0017 C.ar      1 <0>        -0.2216
      3 C3          2.3728    1.3394   -0.0134 C.ar      1 <0>         0.1481
      4 N1          2.3606    0.0197   -0.0204 N.ar      1 <0>        -0.5643
      5 C4          1.2269   -0.6641   -0.0132 C.ar      1 <0>         0.4135
      6 C5          0.0021   -0.0041    0.0020 C.ar      1 <0>        -0.2295
      7 N2          1.2605   -2.0537   -0.0210 N.pl3     1 <0>        -0.8486
      8 C6          3.6903    2.0710   -0.0226 C.3       1 <0>        -0.0369
      9 C7          4.5493    1.5893    1.1483 C.3       1 <0>        -0.0931
     10 H1          4.0012    1.6888    2.0852 H         1 <0>         0.1130
     11 C8          4.9778    0.1221    0.9311 C.3       1 <0>         0.0077
     12 N3          6.3652    0.0554    1.4579 N.4       1 <0>        -0.5195
     13 C9          6.9824    1.3350    1.0236 C.3       1 <0>        -0.0380
     14 C10         5.8669    2.3890    1.2108 C.3       1 <0>         0.0743
     15 H2          5.9664    2.8797    2.1790 H         1 <0>         0.1234
     16 N4          5.9138    3.3806    0.1279 N.3       1 <0>        -0.6603
     17 C11         6.7949    4.5023    0.4790 C.3       1 <0>         0.0218
     18 C12         6.8180    5.5118   -0.6704 C.3       1 <0>        -0.0109
     19 N5          7.6991    6.6336   -0.3193 N.4       1 <0>        -0.6362
     20 H3         -0.9522    1.9182    0.0259 H         1 <0>         0.1395
     21 H4          1.2145    3.1379    0.0070 H         1 <0>         0.1318
     22 H5         -0.9214   -0.5640    0.0078 H         1 <0>         0.1368
     23 H6          2.1120   -2.5181   -0.0316 H         1 <0>         0.4020
     24 H7          0.4325   -2.5589   -0.0158 H         1 <0>         0.4157
     25 H8          4.2097    1.8724   -0.9601 H         1 <0>         0.0849
     26 H9          3.5118    3.1419    0.0742 H         1 <0>         0.1080
     27 H10         4.3265   -0.5507    1.4890 H         1 <0>         0.1433
     28 H11         4.9618   -0.1254   -0.1303 H         1 <0>         0.1429
     29 H12         6.3576   -0.0089    2.4648 H         1 <0>         0.4346
     30 H13         7.8406    1.5754    1.6511 H         1 <0>         0.1366
     31 H14         7.2803    1.2773   -0.0234 H         1 <0>         0.1328
     32 H15         6.1998    2.9542   -0.7406 H         1 <0>         0.3614
     33 H16         6.4232    4.9876    1.3815 H         1 <0>         0.1058
     34 H17         7.8040    4.1301    0.6560 H         1 <0>         0.0604
     35 H18         7.1897    5.0265   -1.5728 H         1 <0>         0.1350
     36 H19         5.8089    5.8840   -0.8474 H         1 <0>         0.1481
     37 H20         7.3550    7.0828    0.5160 H         1 <0>         0.4395
     38 H21         8.6332    6.2890   -0.1555 H         1 <0>         0.4360
     39 H22         6.8579   -0.7282    1.0563 H         1 <0>         0.4376
     40 H23         7.7143    7.2993   -1.0774 H         1 <0>         0.4476
@<TRIPOS>BOND
     1    1    6 ar
     2    1    2 ar
     3    1   20 1
     4    2    3 ar
     5    2   21 1
     6    3    4 ar
     7    3    8 1
     8    4    5 ar
     9    5    6 ar
    10    5    7 1
    11    6   22 1
    12    7   23 1
    13    7   24 1
    14    8    9 1
    15    8   25 1
    16    8   26 1
    17    9   10 1
    18    9   14 1
    19    9   11 1
    20   11   12 1
    21   11   27 1
    22   11   28 1
    23   12   13 1
    24   12   29 1
    25   12   39 1
    26   13   14 1
    27   13   30 1
    28   13   31 1
    29   14   15 1
    30   14   16 1
    31   16   17 1
    32   16   32 1
    33   17   18 1
    34   17   33 1
    35   17   34 1
    36   18   19 1
    37   18   35 1
    38   18   36 1
    39   19   37 1
    40   19   38 1
    41   19   40 1
@<TRIPOS>MOLECULE
CHEMBL474637
   57    59     0     0     0
SMALL
USER_CHARGES

@<TRIPOS>ATOM
      1 C1         -0.0184    1.5028    0.0103 C.3       1 <0>        -0.1502
      2 C2          0.0021   -0.0041    0.0020 C.ar      1 <0>         0.0834
      3 C3          0.0062   -0.7075   -1.1955 C.ar      1 <0>        -0.1535
      4 C4          0.0255   -2.0874   -1.1689 C.ar      1 <0>         0.1427
      5 N1          0.0401   -2.7422   -0.0232 N.ar      1 <0>        -0.5161
      6 C5          0.0364   -2.1079    1.1389 C.ar      1 <0>         0.4645
      7 C6          0.0230   -0.7174    1.1866 C.ar      1 <0>        -0.1965
      8 N2          0.0518   -2.8376    2.3220 N.pl3     1 <0>        -0.8124
      9 C7          0.0295   -2.8562   -2.4651 C.3       1 <0>        -0.0693
     10 C8          1.4659   -2.9882   -2.9753 C.3       1 <0>        -0.1060
     11 H1          1.9326   -2.0060   -3.0489 H         1 <0>         0.1330
     12 C9          2.2854   -3.9024   -2.0394 C.3       1 <0>        -0.0169
     13 N3          3.1730   -4.6709   -2.9497 N.4       1 <0>        -0.5125
     14 C10         2.3142   -4.9797   -4.1219 C.3       1 <0>        -0.0414
     15 C11         1.4846   -3.6945   -4.3466 C.3       1 <0>         0.0760
     16 H2          1.9621   -3.0596   -5.0929 H         1 <0>         0.1352
     17 N4          0.1178   -4.0349   -4.7638 N.3       1 <0>        -0.6640
     18 C12         0.0255   -4.1438   -6.2259 C.3       1 <0>         0.0222
     19 C13        -1.4093   -4.4986   -6.6212 C.3       1 <0>        -0.0119
     20 N5         -1.5017   -4.6074   -8.0833 N.4       1 <0>        -0.5089
     21 C14        -2.8793   -4.9481   -8.4629 C.3       1 <0>         0.0522
     22 C15        -2.9740   -5.0598   -9.9628 C.ar      1 <0>        -0.1794
     23 C16        -3.2807   -3.9450  -10.7206 C.ar      1 <0>        -0.0770
     24 C17        -3.3677   -4.0468  -12.0962 C.ar      1 <0>        -0.1066
     25 C18        -3.1479   -5.2647  -12.7148 C.ar      1 <0>         0.0002
     26 C19        -2.8410   -6.3800  -11.9558 C.ar      1 <0>        -0.1070
     27 C20        -2.7486   -6.2757  -10.5807 C.ar      1 <0>        -0.0780
     28 Cl1        -3.2576   -5.3934  -14.4425 Cl        1 <0>        -0.0244
     29 H3          1.0042    1.8801    0.0026 H         1 <0>         0.1124
     30 H4         -0.5455    1.8639   -0.8728 H         1 <0>         0.0992
     31 H5         -0.5286    1.8543    0.9071 H         1 <0>         0.1008
     32 H6         -0.0061   -0.1802   -2.1379 H         1 <0>         0.1808
     33 H7          0.0246   -0.2022    2.1358 H         1 <0>         0.1858
     34 H8          0.0651   -3.8071    2.2937 H         1 <0>         0.4226
     35 H9          0.0491   -2.3773    3.1758 H         1 <0>         0.4476
     36 H10        -0.3902   -3.8485   -2.3002 H         1 <0>         0.1013
     37 H11        -0.5712   -2.3258   -3.2040 H         1 <0>         0.1480
     38 H12         2.8775   -3.3044   -1.3466 H         1 <0>         0.1449
     39 H13         1.6257   -4.5766   -1.4932 H         1 <0>         0.1289
     40 H14         3.9631   -4.1092   -3.2294 H         1 <0>         0.4441
     41 H15         2.9279   -5.1928   -4.9972 H         1 <0>         0.1485
     42 H16         1.6589   -5.8225   -3.9016 H         1 <0>         0.1379
     43 H17        -0.1956   -4.8838   -4.3175 H         1 <0>         0.3606
     44 H18         0.3025   -3.1921   -6.6793 H         1 <0>         0.1104
     45 H19         0.7021   -4.9235   -6.5756 H         1 <0>         0.0666
     46 H20        -1.6863   -5.4503   -6.1678 H         1 <0>         0.1335
     47 H21        -2.0859   -3.7189   -6.2715 H         1 <0>         0.1458
     48 H22        -1.2452   -3.7264   -8.5030 H         1 <0>         0.4319
     49 H23        -3.1563   -5.8998   -8.0095 H         1 <0>         0.1411
     50 H24        -3.5559   -4.1684   -8.1132 H         1 <0>         0.1428
     51 H25        -3.4527   -2.9945  -10.2376 H         1 <0>         0.1411
     52 H26        -3.6077   -3.1759  -12.6882 H         1 <0>         0.1505
     53 H27        -2.6695   -7.3310  -12.4381 H         1 <0>         0.1500
     54 H28        -2.5044   -7.1452   -9.9885 H         1 <0>         0.1398
     55 H29         3.4827   -5.5220   -2.5052 H         1 <0>         0.4447
     56 H30        -0.8753   -5.3292   -8.4071 H         1 <0>         0.4290
     57 H31         0.0536   -3.7120   -0.0328 H         1 <0>         0.4320
@<TRIPOS>BOND
     1    1    2 1
     2    1   29 1
     3    1   30 1
     4    1   31 1
     5    2    7 ar
     6    2    3 ar
     7    3    4 ar
     8    3   32 1
     9    4    5 ar
    10    4    9 1
    11    5    6 ar
    12    5   57 1
    13    6    7 ar
    14    6    8 1
    15    7   33 1
    16    8   34 1
    17    8   35 1
    18    9   10 1
    19    9   36 1
    20    9   37 1
    21   10   11 1
    22   10   15 1
    23   10   12 1
    24   12   13 1
    25   12   38 1
    26   12   39 1
    27   13   14 1
    28   13   40 1
    29   13   55 1
    30   14   15 1
    31   14   41 1
    32   14   42 1
    33   15   16 1
    34   15   17 1
    35   17   18 1
    36   17   43 1
    37   18   19 1
    38   18   44 1
    39   18   45 1
    40   19   20 1
    41   19   46 1
    42   19   47 1
    43   20   21 1
    44   20   48 1
    45   20   56 1
    46   21   22 1
    47   21   49 1
    48   21   50 1
    49   22   27 ar
    50   22   23 ar
    51   23   24 ar
    52   23   51 1
    53   24   25 ar
    54   24   52 1
    55   25   26 ar
    56   25   28 1
    57   26   27 ar
    58   26   53 1
    59   27   54 1
@<TRIPOS>MOLECULE
CHEMBL503356
   15    15     0     0     0
SMALL
USER_CHARGES

@<TRIPOS>ATOM
      1 C1         -0.0162    1.3469    0.0094 C.2       1 <0>        -0.1875
      2 C2          1.3106    1.7976   -0.0008 C.2       1 <0>         0.1291
      3 N1          2.1001    0.7562   -0.0139 N.2       1 <0>        -0.2737
      4 N2          1.3054   -0.3975   -0.0125 N.pl3     1 <0>        -0.3868
      5 C3          0.0021   -0.0041    0.0020 C.2       1 <0>         0.0448
      6 C4          1.7633   -1.7037   -0.0243 C.cat     1 <0>         0.7853
      7 N3          3.0692   -1.9500   -0.0381 N.pl3     1 <0>        -0.7521
      8 N4          0.8970   -2.7116   -0.0219 N.pl3     1 <0>        -0.7701
      9 H1         -0.8983    1.9699    0.0253 H         1 <0>         0.1871
     10 H2          1.6271    2.8302    0.0017 H         1 <0>         0.2222
     11 H3         -0.8605   -0.6539    0.0073 H         1 <0>         0.2029
     12 H4          3.7015   -1.2144   -0.0398 H         1 <0>         0.4547
     13 H5         -0.0561   -2.5319   -0.0119 H         1 <0>         0.4452
     14 H6          1.2179   -3.6270   -0.0302 H         1 <0>         0.4513
     15 H7          3.3901   -2.8653   -0.0463 H         1 <0>         0.4475
@<TRIPOS>BOND
     1    1    5 2
     2    1    2 1
     3    1    9 1
     4    2    3 2
     5    2   10 1
     6    3    4 1
     7    4    5 1
     8    4    6 1
     9    5   11 1
    10    6    7 2
    11    6    8 1
    12    7   12 1
    13    7   15 1
    14    8   13 1
    15    8   14 1
@<TRIPOS>MOLECULE
CHEMBL38762
   61    64     0     0     0
SMALL
USER_CHARGES

@<TRIPOS>ATOM
      1 C1         -0.0178    1.4648    0.0101 C.3       1 <0>        -0.0520
      2 N1          0.0021   -0.0041    0.0020 N.4       1 <0>        -0.3847
      3 C2          0.7126   -0.4907    1.1921 C.3       1 <0>        -0.0524
      4 C3         -1.3761   -0.5125    0.0124 C.3       1 <0>         0.0220
      5 C4         -1.3568   -2.0435   -0.0040 C.3       1 <0>        -0.1375
      6 C5         -2.7942   -2.5664   -0.0545 C.3       1 <0>         0.0567
      7 N2         -3.4605   -2.0545   -1.2588 N.3       1 <0>        -0.5353
      8 C6         -3.5331   -0.5880   -1.2427 C.3       1 <0>         0.0501
      9 C7         -2.1178   -0.0060   -1.2276 C.3       1 <0>        -0.1365
     10 C8         -4.7963   -2.6461   -1.4131 C.3       1 <0>         0.0535
     11 C9         -5.3562   -2.2887   -2.7914 C.3       1 <0>         0.0555
     12 O1         -4.5535   -2.8984   -3.8043 O.3       1 <0>        -0.2818
     13 C10        -4.9170   -2.6792   -5.0935 C.ar      1 <0>         0.2097
     14 C11        -6.0134   -1.8939   -5.3782 C.ar      1 <0>        -0.2464
     15 C12        -6.4012   -1.6585   -6.6900 C.ar      1 <0>        -0.0153
     16 C13        -5.6949   -2.2078   -7.7469 C.ar      1 <0>        -0.1579
     17 C14        -4.5641   -3.0183   -7.4850 C.ar      1 <0>         0.0269
     18 C15        -4.1702   -3.2499   -6.1453 C.ar      1 <0>        -0.0799
     19 C16        -3.0454   -4.0501   -5.8870 C.ar      1 <0>        -0.0657
     20 C17        -2.3467   -4.5863   -6.9255 C.ar      1 <0>        -0.1244
     21 C18        -2.7315   -4.3528   -8.2437 C.ar      1 <0>        -0.0649
     22 C19        -3.8243   -3.5915   -8.5296 C.ar      1 <0>        -0.1567
     23 C20        -6.1196   -1.9497   -9.1408 C.ar      1 <0>         0.2491
     24 C21        -5.1587   -1.7251  -10.1251 C.ar      1 <0>        -0.1743
     25 C22        -5.5673   -1.4849  -11.4267 C.ar      1 <0>         0.0408
     26 C23        -6.9241   -1.4766  -11.7054 C.ar      1 <0>        -0.2019
     27 C24        -7.8326   -1.7081  -10.6771 C.ar      1 <0>         0.4557
     28 N3         -7.4133   -1.9397   -9.4438 N.ar      1 <0>        -0.5072
     29 N4         -9.1955   -1.7007  -10.9497 N.pl3     1 <0>        -0.8218
     30 H1          1.0047    1.8421    0.0024 H         1 <0>         0.1270
     31 H2         -0.5450    1.8259   -0.8730 H         1 <0>         0.1235
     32 H3         -0.5280    1.8163    0.9069 H         1 <0>         0.1223
     33 H4          0.7273   -1.5806    1.1861 H         1 <0>         0.1253
     34 H5          1.7352   -0.1134    1.1844 H         1 <0>         0.1271
     35 H6          0.2024   -0.1392    2.0889 H         1 <0>         0.1225
     36 H7         -1.8864   -0.1633    0.9101 H         1 <0>         0.1347
     37 H8         -0.8120   -2.3912   -0.8817 H         1 <0>         0.0967
     38 H9         -0.8674   -2.4110    0.8980 H         1 <0>         0.0961
     39 H10        -2.7835   -3.6561   -0.0807 H         1 <0>         0.1001
     40 H11        -3.3344   -2.2298    0.8303 H         1 <0>         0.0495
     41 H12        -4.0591   -0.2406   -2.1320 H         1 <0>         0.0934
     42 H13        -4.0699   -0.2606   -0.3523 H         1 <0>         0.0497
     43 H14        -2.1721    1.0823   -1.1999 H         1 <0>         0.0939
     44 H15        -1.5849   -0.3216   -2.1246 H         1 <0>         0.0957
     45 H16        -4.7268   -3.7298   -1.3190 H         1 <0>         0.0998
     46 H17        -5.4579   -2.2559   -0.6398 H         1 <0>         0.0711
     47 H18        -6.3809   -2.6515   -2.8725 H         1 <0>         0.0810
     48 H19        -5.3428   -1.2064   -2.9195 H         1 <0>         0.0720
     49 H20        -6.5789   -1.4558   -4.5691 H         1 <0>         0.1418
     50 H21        -7.2640   -1.0400   -6.8887 H         1 <0>         0.1300
     51 H22        -2.7359   -4.2389   -4.8697 H         1 <0>         0.1410
     52 H23        -1.4819   -5.2010   -6.7243 H         1 <0>         0.1359
     53 H24        -2.1607   -4.7891   -9.0502 H         1 <0>         0.1370
     54 H25        -4.1122   -3.4194   -9.5562 H         1 <0>         0.1402
     55 H26        -4.1079   -1.7377   -9.8758 H         1 <0>         0.1836
     56 H27        -4.8430   -1.3076  -12.2080 H         1 <0>         0.1784
     57 H28        -7.2734   -1.2920  -12.7105 H         1 <0>         0.1818
     58 H29        -9.5087   -1.5348  -11.8526 H         1 <0>         0.4422
     59 H30        -9.8336   -1.8614  -10.2369 H         1 <0>         0.4209
     60 H31         0.4744   -0.3295   -0.8281 H         1 <0>         0.4255
     61 H32        -8.0653   -2.1024   -8.7442 H         1 <0>         0.4374
@<TRIPOS>BOND
     1    1    2 1
     2    1   30 1
     3    1   31 1
     4    1   32 1
     5    2    3 1
     6    2    4 1
     7    2   60 1
     8    3   33 1
     9    3   34 1
    10    3   35 1
    11    4    9 1
    12    4    5 1
    13    4   36 1
    14    5    6 1
    15    5   37 1
    16    5   38 1
    17    6    7 1
    18    6   39 1
    19    6   40 1
    20    7    8 1
    21    7   10 1
    22    8    9 1
    23    8   41 1
    24    8   42 1
    25    9   43 1
    26    9   44 1
    27   10   11 1
    28   10   45 1
    29   10   46 1
    30   11   12 1
    31   11   47 1
    32   11   48 1
    33   12   13 1
    34   13   18 ar
    35   13   14 ar
    36   14   15 ar
    37   14   49 1
    38   15   16 ar
    39   15   50 1
    40   16   17 ar
    41   16   23 1
    42   17   22 ar
    43   17   18 ar
    44   18   19 ar
    45   19   20 ar
    46   19   51 1
    47   20   21 ar
    48   20   52 1
    49   21   22 ar
    50   21   53 1
    51   22   54 1
    52   23   28 ar
    53   23   24 ar
    54   24   25 ar
    55   24   55 1
    56   25   26 ar
    57   25   56 1
    58   26   27 ar
    59   26   57 1
    60   27   28 ar
    61   27   29 1
    62   28   61 1
    63   29   58 1
    64   29   59 1
@<TRIPOS>MOLECULE
CHEMBL38762__1
   60    63     0     0     0
SMALL
USER_CHARGES

@<TRIPOS>ATOM
      1 C1          0.6060    1.8866    0.5033 C.3       1 <0>        -0.0516
      2 N1          0.4721    0.4320    0.3473 N.4       1 <0>        -0.3851
      3 C2          1.1409    0.0087   -0.8902 C.3       1 <0>        -0.0514
      4 C3          1.0930   -0.2428    1.4950 C.3       1 <0>         0.0227
      5 C4          0.9471   -1.7588    1.3374 C.3       1 <0>        -0.1371
      6 C5          1.5414   -2.4538    2.5646 C.3       1 <0>         0.0573
      7 N2          0.8413   -1.9996    3.7729 N.3       1 <0>        -0.5331
      8 C6          1.0069   -0.5540    3.9708 C.3       1 <0>         0.0508
      9 C7          0.3967    0.1977    2.7856 C.3       1 <0>        -0.1368
     10 C8          1.2910   -2.7477    4.9545 C.3       1 <0>         0.0565
     11 C9          0.3755   -2.4295    6.1384 C.3       1 <0>         0.0589
     12 O1         -0.9417   -2.9112    5.8648 O.3       1 <0>        -0.2925
     13 C10        -1.8831   -2.7080    6.8212 C.ar      1 <0>         0.1539
     14 C11        -1.5511   -2.0575    7.9902 C.ar      1 <0>        -0.2244
     15 C12        -2.4994   -1.8406    8.9803 C.ar      1 <0>        -0.0525
     16 C13        -3.8048   -2.2733    8.8177 C.ar      1 <0>        -0.0666
     17 C14        -4.1751   -2.9440    7.6272 C.ar      1 <0>         0.0076
     18 C15        -3.2049   -3.1570    6.6189 C.ar      1 <0>        -0.0701
     19 C16        -3.5747   -3.8181    5.4363 C.ar      1 <0>        -0.0891
     20 C17        -4.8593   -4.2392    5.2729 C.ar      1 <0>        -0.1245
     21 C18        -5.8149   -4.0237    6.2631 C.ar      1 <0>        -0.1070
     22 C19        -5.4875   -3.3965    7.4273 C.ar      1 <0>        -0.0987
     23 C20        -4.8060   -2.0365    9.8815 C.ar      1 <0>         0.2187
     24 C21        -4.9337   -0.7656   10.4390 C.ar      1 <0>        -0.2198
     25 C22        -5.8744   -0.5550   11.4338 C.ar      1 <0>        -0.0296
     26 C23        -6.6591   -1.6212   11.8414 C.ar      1 <0>        -0.2390
     27 C24        -6.4818   -2.8655   11.2444 C.ar      1 <0>         0.4077
     28 N3         -5.5787   -3.0363   10.2926 N.ar      1 <0>        -0.5349
     29 N4         -7.2655   -3.9398   11.6489 N.pl3     1 <0>        -0.8510
     30 H1          1.6623    2.1510    0.5524 H         1 <0>         0.1212
     31 H2          0.1453    2.3873   -0.3482 H         1 <0>         0.1253
     32 H3          0.1097    2.2007    1.4216 H         1 <0>         0.1247
     33 H4          2.1972    0.2731   -0.8411 H         1 <0>         0.1212
     34 H5          1.0415   -1.0706   -1.0060 H         1 <0>         0.1249
     35 H6          0.6802    0.5094   -1.7418 H         1 <0>         0.1252
     36 H7          2.1499    0.0193    1.5435 H         1 <0>         0.1334
     37 H8         -0.1085   -2.0157    1.2494 H         1 <0>         0.0972
     38 H9          1.4773   -2.0844    0.4425 H         1 <0>         0.0933
     39 H10         1.4263   -3.5329    2.4621 H         1 <0>         0.0986
     40 H11         2.6002   -2.2076    2.6442 H         1 <0>         0.0463
     41 H12         0.5037   -0.2532    4.8897 H         1 <0>         0.0971
     42 H13         2.0683   -0.3167    4.0438 H         1 <0>         0.0468
     43 H14         0.5337    1.2700    2.9253 H         1 <0>         0.0928
     44 H15        -0.6676   -0.0284    2.7203 H         1 <0>         0.0971
     45 H16         1.2541   -3.8165    4.7436 H         1 <0>         0.0968
     46 H17         2.3138   -2.4606    5.1986 H         1 <0>         0.0652
     47 H18         0.7604   -2.9140    7.0357 H         1 <0>         0.0749
     48 H19         0.3432   -1.3510    6.2931 H         1 <0>         0.0654
     49 H20        -0.5386   -1.7119    8.1380 H         1 <0>         0.1292
     50 H21        -2.2159   -1.3288    9.8881 H         1 <0>         0.1299
     51 H22        -2.8439   -3.9914    4.6603 H         1 <0>         0.1302
     52 H23        -5.1413   -4.7470    4.3624 H         1 <0>         0.1234
     53 H24        -6.8273   -4.3668    6.1097 H         1 <0>         0.1239
     54 H25        -6.2380   -3.2369    8.1873 H         1 <0>         0.1357
     55 H26        -4.3065    0.0455   10.0997 H         1 <0>         0.1317
     56 H27        -5.9933    0.4202   11.8826 H         1 <0>         0.1363
     57 H28        -7.4008   -1.4882   12.6151 H         1 <0>         0.1322
     58 H29        -7.9315   -3.8198   12.3438 H         1 <0>         0.4100
     59 H30        -7.1464   -4.8096   11.2363 H         1 <0>         0.4047
     60 H31        -0.5057    0.1872    0.3019 H         1 <0>         0.4262
@<TRIPOS>BOND
     1    1    2 1
     2    1   30 1
     3    1   31 1
     4    1   32 1
     5    2    3 1
     6    2    4 1
     7    2   60 1
     8    3   33 1
     9    3   34 1
    10    3   35 1
    11    4    9 1
    12    4    5 1
    13    4   36 1
    14    5    6 1
    15    5   37 1
    16    5   38 1
    17    6    7 1
    18    6   39 1
    19    6   40 1
    20    7    8 1
    21    7   10 1
    22    8    9 1
    23    8   41 1
    24    8   42 1
    25    9   43 1
    26    9   44 1
    27   10   11 1
    28   10   45 1
    29   10   46 1
    30   11   12 1
    31   11   47 1
    32   11   48 1
    33   12   13 1
    34   13   18 ar
    35   13   14 ar
    36   14   15 ar
    37   14   49 1
    38   15   16 ar
    39   15   50 1
    40   16   17 ar
    41   16   23 1
    42   17   22 ar
    43   17   18 ar
    44   18   19 ar
    45   19   20 ar
    46   19   51 1
    47   20   21 ar
    48   20   52 1
    49   21   22 ar
    50   21   53 1
    51   22   54 1
    52   23   28 ar
    53   23   24 ar
    54   24   25 ar
    55   24   55 1
    56   25   26 ar
    57   25   56 1
    58   26   27 ar
    59   26   57 1
    60   27   28 ar
    61   27   29 1
    62   29   58 1
    63   29   59 1
@<TRIPOS>MOLECULE
CHEMBL39005
   51    54     0     0     0
SMALL
USER_CHARGES

@<TRIPOS>ATOM
      1 C1          0.8656   -0.3580   -0.9926 C.3       1 <0>        -0.0551
      2 N1         -0.0118   -0.0050    0.1314 N.4       1 <0>        -0.3892
      3 C2         -0.0444    1.4554    0.2873 C.3       1 <0>        -0.0491
      4 C3         -1.3695   -0.4996   -0.1331 C.3       1 <0>        -0.0026
      5 C4         -1.3621   -2.0295   -0.1432 C.3       1 <0>         0.0207
      6 O1         -1.0224   -2.5127    1.1580 O.3       1 <0>        -0.3175
      7 C5         -0.9712   -3.8603    1.3215 C.ar      1 <0>         0.1724
      8 C6         -1.2375   -4.7032    0.2476 C.ar      1 <0>        -0.1990
      9 C7         -1.1870   -6.0712    0.4110 C.ar      1 <0>        -0.0541
     10 C8         -0.8676   -6.6151    1.6570 C.ar      1 <0>        -0.1203
     11 C9         -0.6022   -5.7705    2.7253 C.ar      1 <0>        -0.0020
     12 C10        -0.6490   -4.3967    2.5538 C.ar      1 <0>        -0.1147
     13 C11        -0.3042   -3.7543    3.8988 C.3       1 <0>        -0.0486
     14 C12         1.2163   -4.0547    4.0903 C.3       1 <0>        -0.1213
     15 C13         1.2742   -5.5895    4.2805 C.3       1 <0>        -0.1240
     16 C14        -0.2307   -6.0394    4.1846 C.3       1 <0>        -0.0719
     17 C15        -0.9260   -4.8184    4.8764 C.3       1 <0>        -0.1184
     18 C16        -0.8130   -8.0858    1.8373 C.ar      1 <0>         0.2339
     19 C17         0.1880   -8.6472    2.6256 C.ar      1 <0>        -0.1619
     20 C18         0.2302  -10.0228    2.7876 C.ar      1 <0>         0.0420
     21 C19        -0.7305  -10.7945    2.1559 C.ar      1 <0>        -0.1956
     22 C20        -1.7042  -10.1710    1.3817 C.ar      1 <0>         0.4583
     23 N2         -1.7222   -8.8545    1.2498 N.ar      1 <0>        -0.5061
     24 N3         -2.6715  -10.9391    0.7442 N.pl3     1 <0>        -0.8189
     25 H1          1.8730    0.0089   -0.7963 H         1 <0>         0.1299
     26 H2          0.8897   -1.4416   -1.1083 H         1 <0>         0.1183
     27 H3          0.4851    0.0966   -1.9073 H         1 <0>         0.1272
     28 H4         -0.6804    1.7164    1.1331 H         1 <0>         0.1265
     29 H5          0.9658    1.8244    0.4649 H         1 <0>         0.1285
     30 H6         -0.4425    1.9089   -0.6204 H         1 <0>         0.1255
     31 H7         -2.0438   -0.1446    0.6463 H         1 <0>         0.1453
     32 H8         -1.7080   -0.1315   -1.1017 H         1 <0>         0.1539
     33 H9         -2.3506   -2.3958   -0.4202 H         1 <0>         0.1130
     34 H10        -0.6274   -2.3845   -0.8658 H         1 <0>         0.0915
     35 H11        -1.4848   -4.2849   -0.7168 H         1 <0>         0.1444
     36 H12        -1.3949   -6.7226   -0.4250 H         1 <0>         0.1361
     37 H13        -0.6234   -2.7210    4.0354 H         1 <0>         0.1142
     38 H14         1.7789   -3.7579    3.2052 H         1 <0>         0.0682
     39 H15         1.5979   -3.5454    4.9753 H         1 <0>         0.0851
     40 H16         1.8656   -6.0505    3.4895 H         1 <0>         0.0720
     41 H17         1.6839   -5.8380    5.2595 H         1 <0>         0.0897
     42 H18        -0.4622   -7.0340    4.5656 H         1 <0>         0.1174
     43 H19        -0.5963   -4.6786    5.9058 H         1 <0>         0.0981
     44 H20        -2.0120   -4.8690    4.7982 H         1 <0>         0.0806
     45 H21         0.9232   -8.0178    3.1049 H         1 <0>         0.1782
     46 H22         0.9964  -10.4833    3.3935 H         1 <0>         0.1804
     47 H23        -0.7239  -11.8692    2.2627 H         1 <0>         0.1842
     48 H24        -2.6653  -11.9043    0.8403 H         1 <0>         0.4437
     49 H25        -3.3527  -10.5099    0.2032 H         1 <0>         0.4216
     50 H26         0.3404   -0.4258    0.9781 H         1 <0>         0.4322
     51 H27        -2.4133   -8.4419    0.7085 H         1 <0>         0.4375
@<TRIPOS>BOND
     1    1    2 1
     2    1   25 1
     3    1   26 1
     4    1   27 1
     5    2    3 1
     6    2    4 1
     7    2   50 1
     8    3   28 1
     9    3   29 1
    10    3   30 1
    11    4    5 1
    12    4   31 1
    13    4   32 1
    14    5    6 1
    15    5   33 1
    16    5   34 1
    17    6    7 1
    18    7   12 ar
    19    7    8 ar
    20    8    9 ar
    21    8   35 1
    22    9   10 ar
    23    9   36 1
    24   10   11 ar
    25   10   18 1
    26   11   16 1
    27   11   12 ar
    28   12   13 1
    29   13   17 1
    30   13   14 1
    31   13   37 1
    32   14   15 1
    33   14   38 1
    34   14   39 1
    35   15   16 1
    36   15   40 1
    37   15   41 1
    38   16   17 1
    39   16   42 1
    40   17   43 1
    41   17   44 1
    42   18   23 ar
    43   18   19 ar
    44   19   20 ar
    45   19   45 1
    46   20   21 ar
    47   20   46 1
    48   21   22 ar
    49   21   47 1
    50   22   23 ar
    51   22   24 1
    52   23   51 1
    53   24   48 1
    54   24   49 1
@<TRIPOS>MOLECULE
CHEMBL39005__1
   50    53     0     0     0
SMALL
USER_CHARGES

@<TRIPOS>ATOM
      1 C1         -0.0178    1.4648    0.0101 C.3       1 <0>        -0.0544
      2 N1          0.0021   -0.0041    0.0020 N.4       1 <0>        -0.3888
      3 C2          0.6897   -0.4778   -1.2066 C.3       1 <0>        -0.0474
      4 C3          0.7126   -0.4907    1.1921 C.3       1 <0>        -0.0013
      5 C4         -0.0711   -0.1034    2.4478 C.3       1 <0>         0.0230
      6 O1         -1.3280   -0.7834    2.4535 O.3       1 <0>        -0.3252
      7 C5         -2.1515   -0.5482    3.5079 C.ar      1 <0>         0.1364
      8 C6         -1.7601    0.3257    4.5167 C.ar      1 <0>        -0.2080
      9 C7         -2.5937    0.5655    5.5882 C.ar      1 <0>        -0.0588
     10 C8         -3.8354   -0.0692    5.6636 C.ar      1 <0>        -0.0553
     11 C9         -4.2220   -0.9398    4.6548 C.ar      1 <0>        -0.0064
     12 C10        -3.3826   -1.1726    3.5778 C.ar      1 <0>        -0.1280
     13 C11        -4.0917   -2.1591    2.6480 C.3       1 <0>        -0.0469
     14 C12        -5.2662   -1.3330    2.0339 C.3       1 <0>        -0.1186
     15 C13        -6.2064   -1.0686    3.2343 C.3       1 <0>        -0.1182
     16 C14        -5.4858   -1.7748    4.4418 C.3       1 <0>        -0.0501
     17 C15        -4.8760   -3.0169    3.7081 C.3       1 <0>        -0.1247
     18 C16        -4.7347    0.1853    6.8147 C.ar      1 <0>         0.2143
     19 C17        -4.3381    1.0650    7.8183 C.ar      1 <0>        -0.2252
     20 C18        -5.1860    1.2959    8.8898 C.ar      1 <0>        -0.0276
     21 C19        -6.4048    0.6395    8.9242 C.ar      1 <0>        -0.2373
     22 C20        -6.7411   -0.2273    7.8890 C.ar      1 <0>         0.4115
     23 N2         -5.9130   -0.4237    6.8759 N.ar      1 <0>        -0.5356
     24 N3         -7.9626   -0.8901    7.9168 N.pl3     1 <0>        -0.8501
     25 H1          1.0047    1.8421    0.0024 H         1 <0>         0.1246
     26 H2         -0.5450    1.8259   -0.8730 H         1 <0>         0.1270
     27 H3         -0.5280    1.8163    0.9069 H         1 <0>         0.1216
     28 H4          1.7123   -0.1005   -1.2143 H         1 <0>         0.1230
     29 H5          0.7044   -1.5677   -1.2126 H         1 <0>         0.1247
     30 H6          0.1625   -0.1167   -2.0897 H         1 <0>         0.1256
     31 H7          0.8051   -1.5756    1.1418 H         1 <0>         0.1424
     32 H8          1.7055   -0.0428    1.2310 H         1 <0>         0.1489
     33 H9          0.4987   -0.3857    3.3332 H         1 <0>         0.1088
     34 H10        -0.2405    0.9733    2.4528 H         1 <0>         0.0865
     35 H11        -0.8003    0.8176    4.4605 H         1 <0>         0.1316
     36 H12        -2.2862    1.2443    6.3700 H         1 <0>         0.1377
     37 H13        -3.4568   -2.7062    1.9511 H         1 <0>         0.1028
     38 H14        -4.8981   -0.3931    1.6226 H         1 <0>         0.0611
     39 H15        -5.7800   -1.9119    1.2664 H         1 <0>         0.0737
     40 H16        -6.3029    0.0019    3.4156 H         1 <0>         0.0653
     41 H17        -7.1844   -1.5172    3.0597 H         1 <0>         0.0752
     42 H18        -6.0957   -1.9606    5.3260 H         1 <0>         0.1319
     43 H19        -5.6385   -3.6468    3.2499 H         1 <0>         0.0854
     44 H20        -4.2097   -3.5869    4.3556 H         1 <0>         0.0743
     45 H21        -3.3806    1.5614    7.7626 H         1 <0>         0.1315
     46 H22        -4.9021    1.9733    9.6815 H         1 <0>         0.1369
     47 H23        -7.0871    0.7984    9.7461 H         1 <0>         0.1331
     48 H24        -8.5752   -0.7472    8.6552 H         1 <0>         0.4111
     49 H25        -8.2023   -1.4956    7.1979 H         1 <0>         0.4040
     50 H26        -0.9445   -0.3533    0.0092 H         1 <0>         0.4341
@<TRIPOS>BOND
     1    1    2 1
     2    1   25 1
     3    1   26 1
     4    1   27 1
     5    2    3 1
     6    2    4 1
     7    2   50 1
     8    3   28 1
     9    3   29 1
    10    3   30 1
    11    4    5 1
    12    4   31 1
    13    4   32 1
    14    5    6 1
    15    5   33 1
    16    5   34 1
    17    6    7 1
    18    7   12 ar
    19    7    8 ar
    20    8    9 ar
    21    8   35 1
    22    9   10 ar
    23    9   36 1
    24   10   11 ar
    25   10   18 1
    26   11   16 1
    27   11   12 ar
    28   12   13 1
    29   13   17 1
    30   13   14 1
    31   13   37 1
    32   14   15 1
    33   14   38 1
    34   14   39 1
    35   15   16 1
    36   15   40 1
    37   15   41 1
    38   16   17 1
    39   16   42 1
    40   17   43 1
    41   17   44 1
    42   18   23 ar
    43   18   19 ar
    44   19   20 ar
    45   19   45 1
    46   20   21 ar
    47   20   46 1
    48   21   22 ar
    49   21   47 1
    50   22   23 ar
    51   22   24 1
    52   24   48 1
    53   24   49 1
@<TRIPOS>MOLECULE
CHEMBL39005__2
   51    54     0     0     0
SMALL
USER_CHARGES

@<TRIPOS>ATOM
      1 C1          0.8656   -0.3580   -0.9926 C.3       1 <0>        -0.0551
      2 N1         -0.0118   -0.0050    0.1314 N.4       1 <0>        -0.3891
      3 C2         -0.0444    1.4554    0.2873 C.3       1 <0>        -0.0491
      4 C3         -1.3695   -0.4996   -0.1331 C.3       1 <0>        -0.0026
      5 C4         -1.3621   -2.0295   -0.1432 C.3       1 <0>         0.0207
      6 O1         -1.0224   -2.5127    1.1580 O.3       1 <0>        -0.3175
      7 C5         -0.9712   -3.8603    1.3215 C.ar      1 <0>         0.1723
      8 C6         -1.2375   -4.7032    0.2476 C.ar      1 <0>        -0.1989
      9 C7         -1.1865   -6.0712    0.4108 C.ar      1 <0>        -0.0540
     10 C8         -0.8663   -6.6151    1.6567 C.ar      1 <0>        -0.1202
     11 C9         -0.6010   -5.7705    2.7250 C.ar      1 <0>        -0.0020
     12 C10        -0.6490   -4.3967    2.5538 C.ar      1 <0>        -0.1142
     13 C11        -0.3058   -3.7543    3.8992 C.3       1 <0>        -0.0481
     14 C12        -1.5387   -4.0727    4.8034 C.3       1 <0>        -0.1227
     15 C13        -1.4783   -5.6074    4.9929 C.3       1 <0>        -0.1218
     16 C14        -0.2285   -6.0394    4.1840 C.3       1 <0>        -0.0729
     17 C15         0.7251   -4.8076    4.4490 C.3       1 <0>        -0.1181
     18 C16        -0.8106   -8.0858    1.8367 C.ar      1 <0>         0.2351
     19 C17         0.1911   -8.6466    2.6245 C.ar      1 <0>        -0.1633
     20 C18         0.2342  -10.0222    2.7863 C.ar      1 <0>         0.0422
     21 C19        -0.7262  -10.7945    2.1548 C.ar      1 <0>        -0.1957
     22 C20        -1.7006  -10.1715    1.3811 C.ar      1 <0>         0.4581
     23 N2         -1.7196   -8.8550    1.2494 N.ar      1 <0>        -0.5062
     24 N3         -2.6676  -10.9401    0.7439 N.pl3     1 <0>        -0.8190
     25 H1          1.8730    0.0089   -0.7963 H         1 <0>         0.1299
     26 H2          0.8897   -1.4416   -1.1083 H         1 <0>         0.1185
     27 H3          0.4851    0.0966   -1.9073 H         1 <0>         0.1271
     28 H4         -0.6804    1.7164    1.1331 H         1 <0>         0.1264
     29 H5          0.9658    1.8244    0.4649 H         1 <0>         0.1286
     30 H6         -0.4425    1.9089   -0.6204 H         1 <0>         0.1255
     31 H7         -2.0438   -0.1446    0.6463 H         1 <0>         0.1452
     32 H8         -1.7080   -0.1315   -1.1016 H         1 <0>         0.1539
     33 H9         -2.3506   -2.3959   -0.4202 H         1 <0>         0.1128
     34 H10        -0.6274   -2.3845   -0.8658 H         1 <0>         0.0917
     35 H11        -1.4852   -4.2849   -0.7167 H         1 <0>         0.1444
     36 H12        -1.3947   -6.7226   -0.4251 H         1 <0>         0.1361
     37 H13         0.0269   -2.7168    3.8671 H         1 <0>         0.1128
     38 H14        -1.4492   -3.5653    5.7639 H         1 <0>         0.0852
     39 H15        -2.4636   -3.7856    4.3032 H         1 <0>         0.0694
     40 H16        -1.3586   -5.8579    6.0470 H         1 <0>         0.0887
     41 H17        -2.3735   -6.0782    4.5866 H         1 <0>         0.0674
     42 H18         0.1693   -7.0298    4.4054 H         1 <0>         0.1180
     43 H19         1.6374   -4.8452    3.8536 H         1 <0>         0.0833
     44 H20         0.9345   -4.6687    5.5097 H         1 <0>         0.0975
     45 H21         0.9261   -8.0169    3.1036 H         1 <0>         0.1801
     46 H22         1.0010  -10.4824    3.3918 H         1 <0>         0.1805
     47 H23        -0.7188  -11.8692    2.2614 H         1 <0>         0.1841
     48 H24        -2.6608  -11.9053    0.8398 H         1 <0>         0.4437
     49 H25        -3.3493  -10.5113    0.2032 H         1 <0>         0.4215
     50 H26         0.3404   -0.4258    0.9781 H         1 <0>         0.4321
     51 H27        -2.4111   -8.4428    0.7084 H         1 <0>         0.4373
@<TRIPOS>BOND
     1    1    2 1
     2    1   25 1
     3    1   26 1
     4    1   27 1
     5    2    3 1
     6    2    4 1
     7    2   50 1
     8    3   28 1
     9    3   29 1
    10    3   30 1
    11    4    5 1
    12    4   31 1
    13    4   32 1
    14    5    6 1
    15    5   33 1
    16    5   34 1
    17    6    7 1
    18    7   12 ar
    19    7    8 ar
    20    8    9 ar
    21    8   35 1
    22    9   10 ar
    23    9   36 1
    24   10   11 ar
    25   10   18 1
    26   11   16 1
    27   11   12 ar
    28   12   13 1
    29   13   17 1
    30   13   14 1
    31   13   37 1
    32   14   15 1
    33   14   38 1
    34   14   39 1
    35   15   16 1
    36   15   40 1
    37   15   41 1
    38   16   17 1
    39   16   42 1
    40   17   43 1
    41   17   44 1
    42   18   23 ar
    43   18   19 ar
    44   19   20 ar
    45   19   45 1
    46   20   21 ar
    47   20   46 1
    48   21   22 ar
    49   21   47 1
    50   22   23 ar
    51   22   24 1
    52   23   51 1
    53   24   48 1
    54   24   49 1
@<TRIPOS>MOLECULE
CHEMBL39005__3
   50    53     0     0     0
SMALL
USER_CHARGES

@<TRIPOS>ATOM
      1 C1         -0.0178    1.4648    0.0101 C.3       1 <0>        -0.0543
      2 N1          0.0021   -0.0041    0.0020 N.4       1 <0>        -0.3888
      3 C2          0.6897   -0.4778   -1.2066 C.3       1 <0>        -0.0474
      4 C3          0.7126   -0.4907    1.1921 C.3       1 <0>        -0.0013
      5 C4         -0.0711   -0.1034    2.4478 C.3       1 <0>         0.0230
      6 O1         -1.3280   -0.7834    2.4535 O.3       1 <0>        -0.3252
      7 C5         -2.1515   -0.5482    3.5079 C.ar      1 <0>         0.1360
      8 C6         -1.7601    0.3257    4.5167 C.ar      1 <0>        -0.2078
      9 C7         -2.5939    0.5659    5.5880 C.ar      1 <0>        -0.0590
     10 C8         -3.8360   -0.0681    5.6629 C.ar      1 <0>        -0.0551
     11 C9         -4.2225   -0.9389    4.6542 C.ar      1 <0>        -0.0065
     12 C10        -3.3826   -1.1726    3.5778 C.ar      1 <0>        -0.1275
     13 C11        -4.0910   -2.1604    2.6489 C.3       1 <0>        -0.0463
     14 C12        -4.0847   -3.5061    3.4412 C.3       1 <0>        -0.1197
     15 C13        -5.0260   -3.2397    4.6403 C.3       1 <0>        -0.1181
     16 C14        -5.4867   -1.7731    4.4407 C.3       1 <0>        -0.0493
     17 C15        -5.5841   -1.7145    2.8647 C.3       1 <0>        -0.1252
     18 C16        -4.7358    0.1872    6.8135 C.ar      1 <0>         0.2143
     19 C17        -4.3392    1.0670    7.8170 C.ar      1 <0>        -0.2252
     20 C18        -5.1875    1.2986    8.8880 C.ar      1 <0>        -0.0276
     21 C19        -6.4067    0.6429    8.9220 C.ar      1 <0>        -0.2373
     22 C20        -6.7429   -0.2241    7.8869 C.ar      1 <0>         0.4114
     23 N2         -5.9143   -0.4212    6.8742 N.ar      1 <0>        -0.5356
     24 N3         -7.9647   -0.8863    7.9143 N.pl3     1 <0>        -0.8501
     25 H1          1.0047    1.8421    0.0024 H         1 <0>         0.1245
     26 H2         -0.5450    1.8259   -0.8730 H         1 <0>         0.1271
     27 H3         -0.5280    1.8163    0.9069 H         1 <0>         0.1217
     28 H4          1.7123   -0.1005   -1.2143 H         1 <0>         0.1229
     29 H5          0.7044   -1.5677   -1.2126 H         1 <0>         0.1246
     30 H6          0.1625   -0.1167   -2.0897 H         1 <0>         0.1257
     31 H7          0.8051   -1.5756    1.1418 H         1 <0>         0.1422
     32 H8          1.7055   -0.0428    1.2310 H         1 <0>         0.1489
     33 H9          0.4987   -0.3857    3.3332 H         1 <0>         0.1086
     34 H10        -0.2405    0.9733    2.4528 H         1 <0>         0.0867
     35 H11        -0.8001    0.8172    4.4607 H         1 <0>         0.1316
     36 H12        -2.2863    1.2445    6.3698 H         1 <0>         0.1377
     37 H13        -3.7357   -2.1933    1.6189 H         1 <0>         0.1007
     38 H14        -4.4732   -4.3154    2.8229 H         1 <0>         0.0740
     39 H15        -3.0786   -3.7396    3.7898 H         1 <0>         0.0642
     40 H16        -5.8796   -3.9170    4.6139 H         1 <0>         0.0759
     41 H17        -4.4849   -3.3418    5.5810 H         1 <0>         0.0659
     42 H18        -6.3684   -1.4650    5.0027 H         1 <0>         0.1307
     43 H19        -5.7747   -0.7083    2.4914 H         1 <0>         0.0736
     44 H20        -6.2950   -2.4393    2.4680 H         1 <0>         0.0845
     45 H21        -3.3814    1.5628    7.7616 H         1 <0>         0.1315
     46 H22        -4.9036    1.9761    9.6797 H         1 <0>         0.1369
     47 H23        -7.0893    0.8024    9.7435 H         1 <0>         0.1331
     48 H24        -8.5776   -0.7428    8.6523 H         1 <0>         0.4111
     49 H25        -8.2044   -1.4918    7.1954 H         1 <0>         0.4040
     50 H26        -0.9445   -0.3533    0.0092 H         1 <0>         0.4340
@<TRIPOS>BOND
     1    1    2 1
     2    1   25 1
     3    1   26 1
     4    1   27 1
     5    2    3 1
     6    2    4 1
     7    2   50 1
     8    3   28 1
     9    3   29 1
    10    3   30 1
    11    4    5 1
    12    4   31 1
    13    4   32 1
    14    5    6 1
    15    5   33 1
    16    5   34 1
    17    6    7 1
    18    7   12 ar
    19    7    8 ar
    20    8    9 ar
    21    8   35 1
    22    9   10 ar
    23    9   36 1
    24   10   11 ar
    25   10   18 1
    26   11   16 1
    27   11   12 ar
    28   12   13 1
    29   13   17 1
    30   13   14 1
    31   13   37 1
    32   14   15 1
    33   14   38 1
    34   14   39 1
    35   15   16 1
    36   15   40 1
    37   15   41 1
    38   16   17 1
    39   16   42 1
    40   17   43 1
    41   17   44 1
    42   18   23 ar
    43   18   19 ar
    44   19   20 ar
    45   19   45 1
    46   20   21 ar
    47   20   46 1
    48   21   22 ar
    49   21   47 1
    50   22   23 ar
    51   22   24 1
    52   24   48 1
    53   24   49 1
@<TRIPOS>MOLECULE
CHEMBL233229
   57    61     0     0     0
SMALL
USER_CHARGES

@<TRIPOS>ATOM
      1 C1          0.5386    1.9664   -0.3867 C.ar      1 <0>        -0.0833
      2 C2          1.8051    2.5153   -0.4594 C.ar      1 <0>        -0.1134
      3 C3          2.9174    1.6961   -0.4099 C.ar      1 <0>        -0.0983
      4 C4          2.7632    0.3278   -0.2872 C.ar      1 <0>        -0.1633
      5 C5          1.4966   -0.2211   -0.2135 C.ar      1 <0>        -0.0933
      6 C6          0.3843    0.5981   -0.2645 C.ar      1 <0>        -0.1126
      7 C7          3.9757   -0.5654   -0.2341 C.3       1 <0>         0.0446
      8 N1          4.3982   -0.7351    1.1625 N.4       1 <0>        -0.3841
      9 C8          4.8349    0.5588    1.7007 C.3       1 <0>        -0.0070
     10 C9          5.1993    0.4039    3.1788 C.3       1 <0>        -0.1530
     11 C10         6.3333   -0.6163    3.3151 C.3       1 <0>         0.1476
     12 C11         5.8939   -1.9406    2.6838 C.3       1 <0>        -0.1707
     13 C12         5.5037   -1.6988    1.2241 C.3       1 <0>        -0.0027
     14 N2          6.6357   -0.8261    4.7331 N.pl3     1 <0>        -0.6752
     15 C13         7.8885   -1.2613    5.1144 C.2       1 <0>         0.4014
     16 N3          8.3423   -1.5090    6.3220 N.2       1 <0>        -0.5645
     17 C14         9.6050   -1.9344    6.5496 C.ar      1 <0>         0.1387
     18 C15        10.2108   -2.2327    7.7897 C.ar      1 <0>        -0.0902
     19 C16        11.5275   -2.6596    7.8469 C.ar      1 <0>         0.1524
     20 C17        12.2919   -2.8073    6.6822 C.ar      1 <0>        -0.1557
     21 C18        11.7184   -2.5213    5.4601 C.ar      1 <0>        -0.0352
     22 C19        10.4128   -2.0974    5.4008 C.ar      1 <0>        -0.1737
     23 S1          9.3036   -1.6384    4.0902 S.3       1 <0>        -0.0290
     24 N4         12.0911   -2.9414    9.0616 N.2       1 <0>        -0.5732
     25 C20        13.2136   -2.3552    9.4176 C.2       1 <0>         0.5260
     26 N5         13.7613   -1.3709    8.6200 N.pl3     1 <0>        -0.8658
     27 C21        13.8835   -2.7478   10.6631 C.2       1 <0>        -0.2019
     28 C22        15.0554   -2.2580   11.2161 C.2       1 <0>        -0.0983
     29 C23        15.4383   -2.8300   12.4081 C.2       1 <0>        -0.1832
     30 C24        14.6685   -3.8051   12.9473 C.2       1 <0>        -0.2405
     31 S2         13.3972   -3.9739   11.8623 S.3       1 <0>         0.2862
     32 H1         -0.3304    2.6068   -0.4209 H         1 <0>         0.1361
     33 H2          1.9257    3.5843   -0.5553 H         1 <0>         0.1364
     34 H3          3.9070    2.1249   -0.4674 H         1 <0>         0.1314
     35 H4          1.3761   -1.2901   -0.1180 H         1 <0>         0.1315
     36 H5         -0.6053    0.1692   -0.2073 H         1 <0>         0.1364
     37 H6          3.7294   -1.5381   -0.6600 H         1 <0>         0.1388
     38 H7          4.7857   -0.1129   -0.8063 H         1 <0>         0.1370
     39 H8          5.7066    0.9068    1.1466 H         1 <0>         0.1340
     40 H9          4.0279    1.2846    1.6001 H         1 <0>         0.1398
     41 H10         5.5249    1.3653    3.5761 H         1 <0>         0.1237
     42 H11         4.3281    0.0561    3.7340 H         1 <0>         0.0992
     43 H12         7.2210   -0.2452    2.8029 H         1 <0>         0.1021
     44 H13         6.7160   -2.6550    2.7273 H         1 <0>         0.1190
     45 H14         5.0371   -2.3370    3.2287 H         1 <0>         0.0985
     46 H15         5.1905   -2.6397    0.7716 H         1 <0>         0.1384
     47 H16         6.3612   -1.3027    0.6801 H         1 <0>         0.1341
     48 H17         5.9553   -0.6591    5.4040 H         1 <0>         0.4218
     49 H18         9.6425   -2.1268    8.7020 H         1 <0>         0.1357
     50 H19        13.3176   -3.1406    6.7401 H         1 <0>         0.1378
     51 H20        12.2943   -2.6298    4.5529 H         1 <0>         0.1336
     52 H21        13.2693   -1.0386    7.8529 H         1 <0>         0.4078
     53 H22        15.6320   -1.4774   10.7421 H         1 <0>         0.1424
     54 H23        16.3402   -2.5060   12.9061 H         1 <0>         0.1378
     55 H24        14.8319   -4.3468   13.8672 H         1 <0>         0.1905
     56 H25         3.6224   -1.0795    1.7080 H         1 <0>         0.4235
     57 H26        14.6383   -1.0114    8.8266 H         1 <0>         0.4036
@<TRIPOS>BOND
     1    1    6 ar
     2    1    2 ar
     3    1   32 1
     4    2    3 ar
     5    2   33 1
     6    3    4 ar
     7    3   34 1
     8    4    5 ar
     9    4    7 1
    10    5    6 ar
    11    5   35 1
    12    6   36 1
    13    7    8 1
    14    7   37 1
    15    7   38 1
    16    8   13 1
    17    8    9 1
    18    8   56 1
    19    9   10 1
    20    9   39 1
    21    9   40 1
    22   10   11 1
    23   10   41 1
    24   10   42 1
    25   11   12 1
    26   11   14 1
    27   11   43 1
    28   12   13 1
    29   12   44 1
    30   12   45 1
    31   13   46 1
    32   13   47 1
    33   14   15 1
    34   14   48 1
    35   15   23 1
    36   15   16 2
    37   16   17 1
    38   17   22 ar
    39   17   18 ar
    40   18   19 ar
    41   18   49 1
    42   19   20 ar
    43   19   24 1
    44   20   21 ar
    45   20   50 1
    46   21   22 ar
    47   21   51 1
    48   22   23 1
    49   24   25 2
    50   25   26 1
    51   25   27 1
    52   26   52 1
    53   26   57 1
    54   27   31 1
    55   27   28 2
    56   28   29 1
    57   28   53 1
    58   29   30 2
    59   29   54 1
    60   30   31 1
    61   30   55 1
@<TRIPOS>MOLECULE
CHEMBL233229__1
   57    61     0     0     0
SMALL
USER_CHARGES

@<TRIPOS>ATOM
      1 C1          5.5931    5.9115   -2.1514 C.ar      1 <0>        -0.0831
      2 C2          6.9596    5.9380   -1.9447 C.ar      1 <0>        -0.1133
      3 C3          7.6493    4.7591   -1.7312 C.ar      1 <0>        -0.0984
      4 C4          6.9724    3.5539   -1.7240 C.ar      1 <0>        -0.1635
      5 C5          5.6057    3.5275   -1.9298 C.ar      1 <0>        -0.0933
      6 C6          4.9162    4.7062   -2.1446 C.ar      1 <0>        -0.1126
      7 C7          7.7245    2.2687   -1.4923 C.3       1 <0>         0.0446
      8 N1          7.7615    1.9756   -0.0533 N.4       1 <0>        -0.3842
      9 C8          8.5329    3.0165    0.6367 C.3       1 <0>        -0.0072
     10 C9          8.5066    2.7606    2.1451 C.3       1 <0>        -0.1530
     11 C10         9.1231    1.3892    2.4355 C.3       1 <0>         0.1463
     12 C11         8.3567    0.3197    1.6520 C.3       1 <0>        -0.1707
     13 C12         8.3885    0.6660    0.1618 C.3       1 <0>        -0.0028
     14 N2          9.0322    1.1050    3.8698 N.pl3     1 <0>        -0.6732
     15 C13         9.9262    0.2339    4.4587 C.2       1 <0>         0.4052
     16 N3         10.0006   -0.1466    5.7139 N.2       1 <0>        -0.5674
     17 C14        10.9379   -1.0147    6.1543 C.ar      1 <0>         0.1487
     18 C15        11.1258   -1.5011    7.4683 C.ar      1 <0>        -0.1098
     19 C16        12.1391   -2.3894    7.7502 C.ar      1 <0>         0.1847
     20 C17        13.0078   -2.8362    6.7570 C.ar      1 <0>        -0.1454
     21 C18        12.8476   -2.3772    5.4631 C.ar      1 <0>        -0.0234
     22 C19        11.8392   -1.4915    5.1759 C.ar      1 <0>        -0.1722
     23 S1         11.2721   -0.6694    3.7061 S.3       1 <0>        -0.0155
     24 N4         12.3000   -2.8528    9.0617 N.pl3     1 <0>        -0.7039
     25 C20        12.6218   -4.1758    9.2919 C.2       1 <0>         0.4992
     26 N5         12.6596   -5.0219    8.2965 N.2       1 <0>        -0.7291
     27 C21        12.9220   -4.6329   10.6574 C.2       1 <0>        -0.1862
     28 C22        13.2679   -5.8982   11.0971 C.2       1 <0>        -0.0696
     29 C23        13.4918   -6.0213   12.4501 C.2       1 <0>        -0.1806
     30 C24        13.3631   -4.9290   13.2399 C.2       1 <0>        -0.2210
     31 S2         12.9426   -3.6990   12.1757 S.3       1 <0>         0.1970
     32 H1          5.0536    6.8329   -2.3137 H         1 <0>         0.1362
     33 H2          7.4885    6.8796   -1.9503 H         1 <0>         0.1366
     34 H3          8.7171    4.7797   -1.5705 H         1 <0>         0.1315
     35 H4          5.0769    2.5859   -1.9245 H         1 <0>         0.1314
     36 H5          3.8485    4.6856   -2.3058 H         1 <0>         0.1364
     37 H6          7.2230    1.4548   -2.0160 H         1 <0>         0.1389
     38 H7          8.7423    2.3704   -1.8687 H         1 <0>         0.1372
     39 H8          9.5639    2.9984    0.2835 H         1 <0>         0.1344
     40 H9          8.0948    3.9922    0.4265 H         1 <0>         0.1403
     41 H10         9.0813    3.5335    2.6555 H         1 <0>         0.1242
     42 H11         7.4759    2.7787    2.4995 H         1 <0>         0.0994
     43 H12        10.1688    1.3871    2.1279 H         1 <0>         0.1031
     44 H13         8.8243   -0.6522    1.8098 H         1 <0>         0.1190
     45 H14         7.3230    0.2871    1.9961 H         1 <0>         0.0988
     46 H15         7.8439   -0.0936   -0.3990 H         1 <0>         0.1388
     47 H16         9.4226    0.6980   -0.1813 H         1 <0>         0.1344
     48 H17         8.3437    1.5290    4.4056 H         1 <0>         0.4226
     49 H18        10.4680   -1.1722    8.2592 H         1 <0>         0.1388
     50 H19        13.7978   -3.5330    6.9954 H         1 <0>         0.1475
     51 H20        13.5128   -2.7140    4.6817 H         1 <0>         0.1416
     52 H21        12.1855   -2.2445    9.8085 H         1 <0>         0.4086
     53 H22        13.3563   -6.7365   10.4219 H         1 <0>         0.1530
     54 H23        13.7659   -6.9754   12.8754 H         1 <0>         0.1406
     55 H24        13.5031   -4.8628   14.3088 H         1 <0>         0.1907
     56 H25         6.8204    1.9606    0.3102 H         1 <0>         0.4235
     57 H26        12.3710   -4.7445    7.4130 H         1 <0>         0.3461
@<TRIPOS>BOND
     1    1    6 ar
     2    1    2 ar
     3    1   32 1
     4    2    3 ar
     5    2   33 1
     6    3    4 ar
     7    3   34 1
     8    4    5 ar
     9    4    7 1
    10    5    6 ar
    11    5   35 1
    12    6   36 1
    13    7    8 1
    14    7   37 1
    15    7   38 1
    16    8   13 1
    17    8    9 1
    18    8   56 1
    19    9   10 1
    20    9   39 1
    21    9   40 1
    22   10   11 1
    23   10   41 1
    24   10   42 1
    25   11   12 1
    26   11   14 1
    27   11   43 1
    28   12   13 1
    29   12   44 1
    30   12   45 1
    31   13   46 1
    32   13   47 1
    33   14   15 1
    34   14   48 1
    35   15   23 1
    36   15   16 2
    37   16   17 1
    38   17   22 ar
    39   17   18 ar
    40   18   19 ar
    41   18   49 1
    42   19   20 ar
    43   19   24 1
    44   20   21 ar
    45   20   50 1
    46   21   22 ar
    47   21   51 1
    48   22   23 1
    49   24   25 1
    50   24   52 1
    51   25   26 2
    52   25   27 1
    53   26   57 1
    54   27   31 1
    55   27   28 2
    56   28   29 1
    57   28   53 1
    58   29   30 2
    59   29   54 1
    60   30   31 1
    61   30   55 1
@<TRIPOS>MOLECULE
CHEMBL233229__2
   57    61     0     0     0
SMALL
USER_CHARGES

@<TRIPOS>ATOM
      1 C1          1.0355    2.2183   -0.8512 C.ar      1 <0>        -0.0834
      2 C2          2.1582    2.9760   -0.5751 C.ar      1 <0>        -0.1134
      3 C3          3.4018    2.3748   -0.5217 C.ar      1 <0>        -0.0983
      4 C4          3.5227    1.0158   -0.7440 C.ar      1 <0>        -0.1631
      5 C5          2.3998    0.2579   -1.0191 C.ar      1 <0>        -0.0934
      6 C6          1.1564    0.8593   -1.0739 C.ar      1 <0>        -0.1127
      7 C7          4.8786    0.3606   -0.6867 C.3       1 <0>         0.0446
      8 N1          5.1476   -0.0890    0.6857 N.4       1 <0>        -0.3840
      9 C8          5.2328    1.0771    1.5731 C.3       1 <0>        -0.0072
     10 C9          5.4323    0.6107    3.0167 C.3       1 <0>        -0.1529
     11 C10         6.7279   -0.2002    3.1110 C.3       1 <0>         0.1478
     12 C11         6.6582   -1.3716    2.1270 C.3       1 <0>        -0.1707
     13 C12         6.4133   -0.8317    0.7163 C.3       1 <0>        -0.0028
     14 N2          6.8863   -0.7139    4.4738 N.pl3     1 <0>        -0.6757
     15 C13         8.1442   -1.0115    4.9573 C.2       1 <0>         0.3982
     16 N3          8.4840   -1.4811    6.1363 N.2       1 <0>        -0.5642
     17 C14         9.7684   -1.7278    6.4761 C.ar      1 <0>         0.1353
     18 C15        10.2644   -2.2288    7.7014 C.ar      1 <0>        -0.1131
     19 C16        11.6147   -2.4235    7.8856 C.ar      1 <0>         0.1978
     20 C17        12.5321   -2.1353    6.8775 C.ar      1 <0>        -0.0885
     21 C18        12.0755   -1.6441    5.6689 C.ar      1 <0>        -0.0420
     22 C19        10.7303   -1.4480    5.4794 C.ar      1 <0>        -0.1646
     23 S1          9.7246   -0.8634    4.1362 S.3       1 <0>        -0.0265
     24 N4         12.0754   -2.9206    9.1108 N.pl3     1 <0>        -0.6606
     25 C20        13.1132   -3.8312    9.1402 C.2       1 <0>         0.5031
     26 N5         13.5933   -4.3110    8.0234 N.2       1 <0>        -0.7325
     27 C21        13.6782   -4.2611   10.4285 C.2       1 <0>        -0.2352
     28 C22        14.7106   -5.1483   10.6752 C.2       1 <0>        -0.0947
     29 C23        15.0196   -5.3534   12.0012 C.2       1 <0>        -0.1769
     30 C24        14.3144   -4.6936   12.9503 C.2       1 <0>        -0.2218
     31 S2         13.2160   -3.7688   12.0783 S.3       1 <0>         0.2058
     32 H1          0.0633    2.6872   -0.8884 H         1 <0>         0.1360
     33 H2          2.0638    4.0378   -0.4015 H         1 <0>         0.1364
     34 H3          4.2791    2.9669   -0.3067 H         1 <0>         0.1316
     35 H4          2.4943   -0.8038   -1.1931 H         1 <0>         0.1314
     36 H5          0.2792    0.2673   -1.2893 H         1 <0>         0.1363
     37 H6          4.8966   -0.4965   -1.3599 H         1 <0>         0.1387
     38 H7          5.6415    1.0773   -0.9905 H         1 <0>         0.1371
     39 H8          6.0753    1.7004    1.2734 H         1 <0>         0.1342
     40 H9          4.3113    1.6549    1.5024 H         1 <0>         0.1396
     41 H10         5.4971    1.4780    3.6738 H         1 <0>         0.1238
     42 H11         4.5901   -0.0125    3.3175 H         1 <0>         0.0988
     43 H12         7.5758    0.4370    2.8596 H         1 <0>         0.1023
     44 H13         7.5992   -1.9212    2.1482 H         1 <0>         0.1192
     45 H14         5.8415   -2.0360    2.4094 H         1 <0>         0.0981
     46 H15         6.3633   -1.6631    0.0132 H         1 <0>         0.1382
     47 H16         7.2306   -0.1678    0.4349 H         1 <0>         0.1343
     48 H17         6.1070   -0.8450    5.0363 H         1 <0>         0.4212
     49 H18         9.5769   -2.4610    8.5014 H         1 <0>         0.1345
     50 H19        13.5882   -2.2935    7.0387 H         1 <0>         0.1492
     51 H20        12.7738   -1.4158    4.8773 H         1 <0>         0.1362
     52 H21        11.6656   -2.6254    9.9389 H         1 <0>         0.4170
     53 H22        14.3223   -4.9506    8.0440 H         1 <0>         0.3532
     54 H23        15.2406   -5.6485    9.8781 H         1 <0>         0.1437
     55 H24        15.8128   -6.0311   12.2803 H         1 <0>         0.1405
     56 H25        14.4336   -4.7465   14.0224 H         1 <0>         0.1908
     57 H26         4.3985   -0.6902    0.9945 H         1 <0>         0.4234
@<TRIPOS>BOND
     1    1    6 ar
     2    1    2 ar
     3    1   32 1
     4    2    3 ar
     5    2   33 1
     6    3    4 ar
     7    3   34 1
     8    4    5 ar
     9    4    7 1
    10    5    6 ar
    11    5   35 1
    12    6   36 1
    13    7    8 1
    14    7   37 1
    15    7   38 1
    16    8   13 1
    17    8    9 1
    18    8   57 1
    19    9   10 1
    20    9   39 1
    21    9   40 1
    22   10   11 1
    23   10   41 1
    24   10   42 1
    25   11   12 1
    26   11   14 1
    27   11   43 1
    28   12   13 1
    29   12   44 1
    30   12   45 1
    31   13   46 1
    32   13   47 1
    33   14   15 1
    34   14   48 1
    35   15   23 1
    36   15   16 2
    37   16   17 1
    38   17   22 ar
    39   17   18 ar
    40   18   19 ar
    41   18   49 1
    42   19   20 ar
    43   19   24 1
    44   20   21 ar
    45   20   50 1
    46   21   22 ar
    47   21   51 1
    48   22   23 1
    49   24   25 1
    50   24   52 1
    51   25   26 2
    52   25   27 1
    53   26   53 1
    54   27   31 1
    55   27   28 2
    56   28   29 1
    57   28   54 1
    58   29   30 2
    59   29   55 1
    60   30   31 1
    61   30   56 1
@<TRIPOS>MOLECULE
CHEMBL233229__3
   58    62     0     0     0
SMALL
USER_CHARGES

@<TRIPOS>ATOM
      1 C1          5.5995    5.9148   -2.1526 C.ar      1 <0>        -0.0809
      2 C2          6.9661    5.9405   -1.9457 C.ar      1 <0>        -0.1126
      3 C3          7.6551    4.7613   -1.7321 C.ar      1 <0>        -0.0990
      4 C4          6.9776    3.5564   -1.7250 C.ar      1 <0>        -0.1666
      5 C5          5.6109    3.5308   -1.9309 C.ar      1 <0>        -0.0930
      6 C6          4.9221    4.7098   -2.1459 C.ar      1 <0>        -0.1117
      7 C7          7.7290    2.2708   -1.4931 C.3       1 <0>         0.0452
      8 N1          7.7657    1.9778   -0.0541 N.4       1 <0>        -0.3848
      9 C8          8.5374    3.0183    0.6360 C.3       1 <0>        -0.0081
     10 C9          8.5108    2.7624    2.1444 C.3       1 <0>        -0.1535
     11 C10         9.1266    1.3907    2.4349 C.3       1 <0>         0.1406
     12 C11         8.3598    0.3216    1.6513 C.3       1 <0>        -0.1699
     13 C12         8.3920    0.6679    0.1611 C.3       1 <0>        -0.0032
     14 N2          9.0354    1.1066    3.8692 N.pl3     1 <0>        -0.6629
     15 C13         9.9288    0.2351    4.4582 C.2       1 <0>         0.4245
     16 N3         10.0029   -0.1454    5.7134 N.2       1 <0>        -0.5777
     17 C14        10.9397   -1.0140    6.1540 C.ar      1 <0>         0.1663
     18 C15        11.1272   -1.5004    7.4681 C.ar      1 <0>        -0.0767
     19 C16        12.1399   -2.3893    7.7501 C.ar      1 <0>         0.1133
     20 C17        13.0086   -2.8365    6.7570 C.ar      1 <0>        -0.1653
     21 C18        12.8488   -2.3775    5.4631 C.ar      1 <0>        -0.0053
     22 C19        11.8409   -1.4913    5.1758 C.ar      1 <0>        -0.1669
     23 S1         11.2744   -0.6690    3.7059 S.3       1 <0>         0.0240
     24 N4         12.3005   -2.8527    9.0616 N.pl3     1 <0>        -0.6127
     25 C20        12.6218   -4.1758    9.2919 C.cat     1 <0>         0.6511
     26 N5         12.6596   -5.0219    8.2965 N.pl3     1 <0>        -0.7335
     27 C21        12.9216   -4.6330   10.6575 C.2       1 <0>        -0.3408
     28 C22        12.7254   -5.8807   11.2220 C.2       1 <0>        -0.0179
     29 C23        13.1088   -6.0090   12.5383 C.2       1 <0>        -0.1958
     30 C24        13.6372   -4.9382   13.1767 C.2       1 <0>        -0.1669
     31 S2         13.6394   -3.7258   12.0138 S.3       1 <0>         0.3138
     32 H1          5.0605    6.8364   -2.3150 H         1 <0>         0.1376
     33 H2          7.4954    6.8819   -1.9513 H         1 <0>         0.1374
     34 H3          8.7229    4.7814   -1.5712 H         1 <0>         0.1310
     35 H4          5.0816    2.5894   -1.9257 H         1 <0>         0.1314
     36 H5          3.8544    4.6897   -2.3072 H         1 <0>         0.1375
     37 H6          7.2272    1.4572   -2.0169 H         1 <0>         0.1398
     38 H7          8.7469    2.3720   -1.8694 H         1 <0>         0.1377
     39 H8          9.5685    2.9997    0.2829 H         1 <0>         0.1353
     40 H9          8.0999    3.9943    0.4257 H         1 <0>         0.1434
     41 H10         9.0858    3.5350    2.6549 H         1 <0>         0.1257
     42 H11         7.4801    2.7811    2.4986 H         1 <0>         0.1018
     43 H12        10.1723    1.3881    2.1274 H         1 <0>         0.1056
     44 H13         8.8268   -0.6505    1.8092 H         1 <0>         0.1172
     45 H14         7.3260    0.2896    1.9952 H         1 <0>         0.1014
     46 H15         7.8471   -0.0914   -0.3998 H         1 <0>         0.1410
     47 H16         9.4262    0.6994   -0.1818 H         1 <0>         0.1350
     48 H17         8.3470    1.5310    4.4049 H         1 <0>         0.4276
     49 H18        10.4693   -1.1712    8.2588 H         1 <0>         0.1510
     50 H19        13.7981   -3.5337    6.9955 H         1 <0>         0.1494
     51 H20        13.5139   -2.7146    4.6818 H         1 <0>         0.1538
     52 H21        12.1860   -2.2444    9.8084 H         1 <0>         0.4475
     53 H22        12.9763   -5.9272    8.4412 H         1 <0>         0.4487
     54 H23        12.2984   -6.7020   10.6657 H         1 <0>         0.1591
     55 H24        12.9893   -6.9503   13.0543 H         1 <0>         0.1601
     56 H25        13.9823   -4.8785   14.1983 H         1 <0>         0.2102
     57 H26         6.8245    1.9633    0.3093 H         1 <0>         0.4243
     58 H27        12.3710   -4.7445    7.4130 H         1 <0>         0.4361
@<TRIPOS>BOND
     1    1    6 ar
     2    1    2 ar
     3    1   32 1
     4    2    3 ar
     5    2   33 1
     6    3    4 ar
     7    3   34 1
     8    4    5 ar
     9    4    7 1
    10    5    6 ar
    11    5   35 1
    12    6   36 1
    13    7    8 1
    14    7   37 1
    15    7   38 1
    16    8   13 1
    17    8    9 1
    18    8   57 1
    19    9   10 1
    20    9   39 1
    21    9   40 1
    22   10   11 1
    23   10   41 1
    24   10   42 1
    25   11   12 1
    26   11   14 1
    27   11   43 1
    28   12   13 1
    29   12   44 1
    30   12   45 1
    31   13   46 1
    32   13   47 1
    33   14   15 1
    34   14   48 1
    35   15   23 1
    36   15   16 2
    37   16   17 1
    38   17   22 ar
    39   17   18 ar
    40   18   19 ar
    41   18   49 1
    42   19   20 ar
    43   19   24 1
    44   20   21 ar
    45   20   50 1
    46   21   22 ar
    47   21   51 1
    48   22   23 1
    49   24   25 1
    50   24   52 1
    51   25   26 2
    52   25   27 1
    53   26   53 1
    54   26   58 1
    55   27   31 1
    56   27   28 2
    57   28   29 1
    58   28   54 1
    59   29   30 2
    60   29   55 1
    61   30   31 1
    62   30   56 1
@<TRIPOS>MOLECULE
CHEMBL540783
   36    37     0     0     0
SMALL
USER_CHARGES

@<TRIPOS>ATOM
      1 C1         -6.6915   -2.7819    3.1219 C.3       1 <0>        -0.1444
      2 C2         -5.8531   -2.1967    1.9837 C.3       1 <0>        -0.1608
      3 S1         -4.5700   -3.3861    1.5046 S.3       1 <0>         0.1004
      4 C3         -3.7023   -2.5757    0.2027 C.cat     1 <0>         0.4635
      5 N1         -4.0659   -1.3829   -0.1799 N.pl3     1 <0>        -0.7433
      6 N2         -2.6404   -3.2016   -0.4110 N.pl3     1 <0>        -0.5922
      7 C4         -2.5546   -4.5997   -0.4080 C.ar      1 <0>         0.0512
      8 C5         -1.3124   -5.2192   -0.3718 C.ar      1 <0>        -0.0643
      9 C6         -1.2285   -6.5975   -0.3684 C.ar      1 <0>        -0.1712
     10 C7         -2.3849   -7.3633   -0.4016 C.ar      1 <0>         0.1515
     11 C8         -3.6264   -6.7449   -0.4382 C.ar      1 <0>        -0.1164
     12 C9         -3.7118   -5.3666   -0.4354 C.ar      1 <0>        -0.0876
     13 O1         -2.3017   -8.7204   -0.3987 O.3       1 <0>        -0.2456
     14 C10        -1.0651   -9.2836   -0.4036 C.ar      1 <0>         0.0636
     15 C11        -0.3408   -9.3802    0.7760 C.ar      1 <0>        -0.1287
     16 C12         0.9159   -9.9537    0.7684 C.ar      1 <0>        -0.1044
     17 C13         1.4521  -10.4312   -0.4132 C.ar      1 <0>        -0.1075
     18 C14         0.7325  -10.3362   -1.5901 C.ar      1 <0>        -0.1031
     19 C15        -0.5268   -9.7684   -1.5871 C.ar      1 <0>        -0.1170
     20 H1         -7.4625   -2.0672    3.4098 H         1 <0>         0.1014
     21 H2         -7.1605   -3.7078    2.7888 H         1 <0>         0.0803
     22 H3         -6.0489   -2.9876    3.9779 H         1 <0>         0.0789
     23 H4         -6.4957   -1.9910    1.1277 H         1 <0>         0.1138
     24 H5         -5.3841   -1.2708    2.3168 H         1 <0>         0.1117
     25 H6         -3.5416   -0.9047   -0.8412 H         1 <0>         0.4332
     26 H7         -1.9517   -2.6743   -0.8453 H         1 <0>         0.4358
     27 H8         -0.4121   -4.6233   -0.3467 H         1 <0>         0.1422
     28 H9         -0.2624   -7.0795   -0.3403 H         1 <0>         0.1477
     29 H10        -4.5262   -7.3415   -0.4648 H         1 <0>         0.1532
     30 H11        -4.6783   -4.8853   -0.4591 H         1 <0>         0.1431
     31 H12        -0.7590   -9.0070    1.6992 H         1 <0>         0.1323
     32 H13         1.4802  -10.0288    1.6862 H         1 <0>         0.1351
     33 H14         2.4350  -10.8789   -0.4171 H         1 <0>         0.1339
     34 H15         1.1536  -10.7100   -2.5117 H         1 <0>         0.1363
     35 H16        -1.0902   -9.6981   -2.5058 H         1 <0>         0.1343
     36 H17        -4.8607   -0.9739    0.1970 H         1 <0>         0.4431
@<TRIPOS>BOND
     1    1    2 1
     2    1   20 1
     3    1   21 1
     4    1   22 1
     5    2    3 1
     6    2   23 1
     7    2   24 1
     8    3    4 1
     9    4    5 2
    10    4    6 1
    11    5   25 1
    12    5   36 1
    13    6    7 1
    14    6   26 1
    15    7   12 ar
    16    7    8 ar
    17    8    9 ar
    18    8   27 1
    19    9   10 ar
    20    9   28 1
    21   10   11 ar
    22   10   13 1
    23   11   12 ar
    24   11   29 1
    25   12   30 1
    26   13   14 1
    27   14   19 ar
    28   14   15 ar
    29   15   16 ar
    30   15   31 1
    31   16   17 ar
    32   16   32 1
    33   17   18 ar
    34   17   33 1
    35   18   19 ar
    36   18   34 1
    37   19   35 1
@<TRIPOS>MOLECULE
CHEMBL540783__1
   35    36     0     0     0
SMALL
USER_CHARGES

@<TRIPOS>ATOM
      1 C1         -0.1513    1.4464    1.1872 C.3       1 <0>        -0.1423
      2 C2         -0.1602   -0.0694    0.9791 C.3       1 <0>        -0.0921
      3 S1          1.1499   -0.5270   -0.1892 S.3       1 <0>        -0.0448
      4 C3          1.0107   -2.2785   -0.3212 C.2       1 <0>         0.4116
      5 N1          1.8656   -2.9759   -1.1403 N.pl3     1 <0>        -0.8529
      6 N2          0.0899   -2.9175    0.3634 N.2       1 <0>        -0.5830
      7 C4          0.0649   -4.2881    0.3654 C.ar      1 <0>         0.1315
      8 C5          1.1951   -5.0082    0.7560 C.ar      1 <0>        -0.1589
      9 C6          1.1655   -6.3872    0.7570 C.ar      1 <0>        -0.0959
     10 C7          0.0142   -7.0589    0.3699 C.ar      1 <0>         0.0608
     11 C8         -1.1119   -6.3468   -0.0192 C.ar      1 <0>        -0.1140
     12 C9         -1.0928   -4.9676   -0.0177 C.ar      1 <0>        -0.1126
     13 O1         -0.0105   -8.4185    0.3715 O.3       1 <0>        -0.2552
     14 C10        -0.1063   -9.0561   -0.8245 C.ar      1 <0>         0.1202
     15 C11        -0.0446   -8.3307   -2.0058 C.ar      1 <0>        -0.1956
     16 C12        -0.1418   -8.9815   -3.2204 C.ar      1 <0>        -0.0828
     17 C13        -0.3005  -10.3545   -3.2597 C.ar      1 <0>        -0.1534
     18 C14        -0.3623  -11.0798   -2.0840 C.ar      1 <0>        -0.0823
     19 C15        -0.2603  -10.4345   -0.8669 C.ar      1 <0>        -0.1467
     20 H1         -0.3245    1.9451    0.2336 H         1 <0>         0.0671
     21 H2         -0.9385    1.7213    1.8892 H         1 <0>         0.0817
     22 H3          0.8153    1.7525    1.5871 H         1 <0>         0.0668
     23 H4          0.0130   -0.5681    1.9327 H         1 <0>         0.0967
     24 H5         -1.1269   -0.3756    0.5792 H         1 <0>         0.0977
     25 H6          2.5010   -2.4990   -1.6968 H         1 <0>         0.4055
     26 H7          2.0916   -4.4863    1.0566 H         1 <0>         0.1283
     27 H8          2.0395   -6.9451    1.0591 H         1 <0>         0.1330
     28 H9         -2.0057   -6.8734   -0.3197 H         1 <0>         0.1318
     29 H10        -1.9707   -4.4142   -0.3167 H         1 <0>         0.1315
     30 H11         0.0790   -7.2582   -1.9757 H         1 <0>         0.1273
     31 H12        -0.0942   -8.4174   -4.1401 H         1 <0>         0.1252
     32 H13        -0.3767  -10.8614   -4.2103 H         1 <0>         0.1253
     33 H14        -0.4863  -12.1521   -2.1175 H         1 <0>         0.1315
     34 H15        -0.3045  -11.0019    0.0510 H         1 <0>         0.1324
     35 H16         1.8337   -3.9452   -1.1620 H         1 <0>         0.4067
@<TRIPOS>BOND
     1    1    2 1
     2    1   20 1
     3    1   21 1
     4    1   22 1
     5    2    3 1
     6    2   23 1
     7    2   24 1
     8    3    4 1
     9    4    5 1
    10    4    6 2
    11    5   25 1
    12    5   35 1
    13    6    7 1
    14    7   12 ar
    15    7    8 ar
    16    8    9 ar
    17    8   26 1
    18    9   10 ar
    19    9   27 1
    20   10   11 ar
    21   10   13 1
    22   11   12 ar
    23   11   28 1
    24   12   29 1
    25   13   14 1
    26   14   19 ar
    27   14   15 ar
    28   15   16 ar
    29   15   30 1
    30   16   17 ar
    31   16   31 1
    32   17   18 ar
    33   17   32 1
    34   18   19 ar
    35   18   33 1
    36   19   34 1
@<TRIPOS>MOLECULE
CHEMBL540783__2
   35    36     0     0     0
SMALL
USER_CHARGES

@<TRIPOS>ATOM
      1 C1          1.4739   -2.3485   -3.7645 C.3       1 <0>        -0.1400
      2 C2          0.3268   -1.8210   -2.9004 C.3       1 <0>        -0.1084
      3 S1         -0.4898   -3.2095   -2.0661 S.3       1 <0>        -0.0344
      4 C3         -1.7692   -2.4479   -1.1240 C.2       1 <0>         0.3999
      5 N1         -1.9233   -1.1532   -1.1600 N.2       1 <0>        -0.7533
      6 N2         -2.6064   -3.2195   -0.3496 N.pl3     1 <0>        -0.6849
      7 C4         -2.3667   -4.5929   -0.2136 C.ar      1 <0>         0.1157
      8 C5         -1.0670   -5.0603   -0.0702 C.ar      1 <0>        -0.1013
      9 C6         -0.8315   -6.4142    0.0643 C.ar      1 <0>        -0.1641
     10 C7         -1.8929   -7.3076    0.0557 C.ar      1 <0>         0.1092
     11 C8         -3.1917   -6.8412   -0.0880 C.ar      1 <0>        -0.1201
     12 C9         -3.4291   -5.4870   -0.2164 C.ar      1 <0>        -0.1036
     13 O1         -1.6603   -8.6406    0.1877 O.3       1 <0>        -0.2586
     14 C10        -0.3693   -9.0593    0.2542 C.ar      1 <0>         0.0818
     15 C11         0.3350   -8.9543    1.4452 C.ar      1 <0>        -0.1322
     16 C12         1.6471   -9.3811    1.5102 C.ar      1 <0>        -0.1059
     17 C13         2.2588   -9.9128    0.3899 C.ar      1 <0>        -0.1171
     18 C14         1.5593  -10.0186   -0.7981 C.ar      1 <0>        -0.1050
     19 C15         0.2453   -9.5981   -0.8672 C.ar      1 <0>        -0.1212
     20 H1          1.9646   -1.5141   -4.2657 H         1 <0>         0.0781
     21 H2          2.1950   -2.8680   -3.1334 H         1 <0>         0.0654
     22 H3          1.0795   -3.0391   -4.5099 H         1 <0>         0.0651
     23 H4          0.7212   -1.1304   -2.1550 H         1 <0>         0.0933
     24 H5         -0.3943   -1.3015   -3.5315 H         1 <0>         0.0917
     25 H6         -3.3622   -2.8121    0.1017 H         1 <0>         0.4086
     26 H7         -0.2406   -4.3650   -0.0642 H         1 <0>         0.1432
     27 H8          0.1793   -6.7778    0.1759 H         1 <0>         0.1344
     28 H9         -4.0175   -7.5372   -0.0954 H         1 <0>         0.1379
     29 H10        -4.4405   -5.1237   -0.3235 H         1 <0>         0.1338
     30 H11        -0.1422   -8.5388    2.3205 H         1 <0>         0.1306
     31 H12         2.1958   -9.2993    2.4369 H         1 <0>         0.1308
     32 H13         3.2849  -10.2456    0.4428 H         1 <0>         0.1290
     33 H14         2.0393  -10.4342   -1.6717 H         1 <0>         0.1319
     34 H15        -0.3019   -9.6847   -1.7942 H         1 <0>         0.1324
     35 H16        -2.6712   -0.7407   -0.7003 H         1 <0>         0.3370
@<TRIPOS>BOND
     1    1    2 1
     2    1   20 1
     3    1   21 1
     4    1   22 1
     5    2    3 1
     6    2   23 1
     7    2   24 1
     8    3    4 1
     9    4    5 2
    10    4    6 1
    11    5   35 1
    12    6    7 1
    13    6   25 1
    14    7   12 ar
    15    7    8 ar
    16    8    9 ar
    17    8   26 1
    18    9   10 ar
    19    9   27 1
    20   10   11 ar
    21   10   13 1
    22   11   12 ar
    23   11   28 1
    24   12   29 1
    25   13   14 1
    26   14   19 ar
    27   14   15 ar
    28   15   16 ar
    29   15   30 1
    30   16   17 ar
    31   16   31 1
    32   17   18 ar
    33   17   32 1
    34   18   19 ar
    35   18   33 1
    36   19   34 1
@<TRIPOS>MOLECULE
CHEMBL540783__3
   35    36     0     0     0
SMALL
USER_CHARGES

@<TRIPOS>ATOM
      1 C1          1.9781    1.4406    0.6563 C.3       1 <0>        -0.1360
      2 C2          1.8996   -0.0861    0.5930 C.3       1 <0>        -0.0958
      3 S1          1.7471   -0.6126   -1.1362 S.3       1 <0>        -0.1700
      4 C3          1.6691   -2.3703   -1.0413 C.2       1 <0>         0.4281
      5 N1          1.7256   -2.9640    0.1188 N.2       1 <0>        -0.7495
      6 N2          1.5484   -3.1172   -2.1917 N.pl3     1 <0>        -0.6383
      7 C4          1.5583   -4.5162   -2.1227 C.ar      1 <0>         0.1299
      8 C5          0.9709   -5.1626   -1.0432 C.ar      1 <0>        -0.0705
      9 C6          0.9806   -6.5417   -0.9760 C.ar      1 <0>        -0.1764
     10 C7          1.5774   -7.2816   -1.9866 C.ar      1 <0>         0.1045
     11 C8          2.1649   -6.6364   -3.0652 C.ar      1 <0>        -0.1260
     12 C9          2.1505   -5.2574   -3.1367 C.ar      1 <0>        -0.1098
     13 O1          1.5870   -8.6396   -1.9196 O.3       1 <0>        -0.2590
     14 C10         0.8895   -9.2337   -0.9163 C.ar      1 <0>         0.0880
     15 C11        -0.4968   -9.1737   -0.9032 C.ar      1 <0>        -0.1394
     16 C12        -1.2035   -9.7790    0.1178 C.ar      1 <0>        -0.1040
     17 C13        -0.5307  -10.4442    1.1261 C.ar      1 <0>        -0.1219
     18 C14         0.8506  -10.5056    1.1155 C.ar      1 <0>        -0.1032
     19 C15         1.5619   -9.9065    0.0940 C.ar      1 <0>        -0.1230
     20 H1          2.8468    1.7833    0.0941 H         1 <0>         0.0702
     21 H2          1.0737    1.8691    0.2244 H         1 <0>         0.0702
     22 H3          2.0698    1.7569    1.6953 H         1 <0>         0.0823
     23 H4          2.8041   -0.5146    1.0249 H         1 <0>         0.0917
     24 H5          1.0310   -0.4289    1.1552 H         1 <0>         0.0917
     25 H6          1.8106   -2.4378    0.9293 H         1 <0>         0.3467
     26 H7          1.4566   -2.6746   -3.0499 H         1 <0>         0.4202
     27 H8          0.5069   -4.5867   -0.2562 H         1 <0>         0.1476
     28 H9          0.5237   -7.0446   -0.1365 H         1 <0>         0.1300
     29 H10         2.6300   -7.2129   -3.8512 H         1 <0>         0.1361
     30 H11         2.6036   -4.7554   -3.9787 H         1 <0>         0.1334
     31 H12        -1.0227   -8.6539   -1.6903 H         1 <0>         0.1298
     32 H13        -2.2824   -9.7322    0.1286 H         1 <0>         0.1298
     33 H14        -1.0851  -10.9165    1.9236 H         1 <0>         0.1283
     34 H15         1.3737  -11.0258    1.9042 H         1 <0>         0.1317
     35 H16         2.6406   -9.9582    0.0840 H         1 <0>         0.1323
@<TRIPOS>BOND
     1    1    2 1
     2    1   20 1
     3    1   21 1
     4    1   22 1
     5    2    3 1
     6    2   23 1
     7    2   24 1
     8    3    4 1
     9    4    5 2
    10    4    6 1
    11    5   25 1
    12    6    7 1
    13    6   26 1
    14    7   12 ar
    15    7    8 ar
    16    8    9 ar
    17    8   27 1
    18    9   10 ar
    19    9   28 1
    20   10   11 ar
    21   10   13 1
    22   11   12 ar
    23   11   29 1
    24   12   30 1
    25   13   14 1
    26   14   19 ar
    27   14   15 ar
    28   15   16 ar
    29   15   31 1
    30   16   17 ar
    31   16   32 1
    32   17   18 ar
    33   17   33 1
    34   18   19 ar
    35   18   34 1
    36   19   35 1
@<TRIPOS>MOLECULE
CHEMBL302657
   26    26     0     0     0
SMALL
USER_CHARGES

@<TRIPOS>ATOM
      1 C1         -0.0187    1.5258    0.0104 C.3       1 <0>        -0.1589
      2 C2          0.0021   -0.0041    0.0020 C.3       1 <0>        -0.1221
      3 C3          0.7421   -0.5109    1.2415 C.3       1 <0>        -0.1037
      4 C4          0.7625   -2.0177    1.2333 C.ar      1 <0>         0.1884
      5 C5         -0.3140   -2.7166    1.7421 C.ar      1 <0>        -0.1719
      6 C6         -0.2898   -4.1047    1.7320 C.ar      1 <0>         0.0794
      7 C7          0.8208   -4.7419    1.2082 C.ar      1 <0>        -0.2112
      8 C8          1.8697   -3.9746    0.7123 C.ar      1 <0>         0.4562
      9 N1          1.8066   -2.6521    0.7349 N.ar      1 <0>        -0.5069
     10 N2          2.9919   -4.6018    0.1835 N.pl3     1 <0>        -0.8233
     11 C9         -1.4471   -4.8995    2.2797 C.3       1 <0>        -0.1425
     12 H1          1.0039    1.9031    0.0027 H         1 <0>         0.0608
     13 H2         -0.5459    1.8868   -0.8726 H         1 <0>         0.0689
     14 H3         -0.5289    1.8773    0.9072 H         1 <0>         0.0650
     15 H4         -1.0205   -0.3814    0.0098 H         1 <0>         0.0788
     16 H5          0.5123   -0.3556   -0.8948 H         1 <0>         0.0669
     17 H6          1.7647   -0.1336    1.2338 H         1 <0>         0.0982
     18 H7          0.2319   -0.1594    2.1383 H         1 <0>         0.1223
     19 H8         -1.1661   -2.1888    2.1444 H         1 <0>         0.1794
     20 H9          0.8729   -5.8204    1.1850 H         1 <0>         0.1790
     21 H10         3.0411   -5.5703    0.1615 H         1 <0>         0.4406
     22 H11         3.7259   -4.0709   -0.1635 H         1 <0>         0.4210
     23 H12        -2.1653   -5.0920    1.4826 H         1 <0>         0.1070
     24 H13        -1.0820   -5.8469    2.6763 H         1 <0>         0.0939
     25 H14        -1.9312   -4.3346    3.0763 H         1 <0>         0.0957
     26 H15         2.5478   -2.1370    0.3797 H         1 <0>         0.4389
@<TRIPOS>BOND
     1    1    2 1
     2    1   12 1
     3    1   13 1
     4    1   14 1
     5    2    3 1
     6    2   15 1
     7    2   16 1
     8    3    4 1
     9    3   17 1
    10    3   18 1
    11    4    9 ar
    12    4    5 ar
    13    5    6 ar
    14    5   19 1
    15    6    7 ar
    16    6   11 1
    17    7    8 ar
    18    7   20 1
    19    8    9 ar
    20    8   10 1
    21    9   26 1
    22   10   21 1
    23   10   22 1
    24   11   23 1
    25   11   24 1
    26   11   25 1
@<TRIPOS>MOLECULE
CHEMBL86810
   57    59     0     0     0
SMALL
USER_CHARGES

@<TRIPOS>ATOM
      1 C1          1.2536   -2.4923    0.1300 C.3       1 <0>        -0.1710
      2 C2          0.6190   -2.0194   -1.1794 C.3       1 <0>        -0.1182
      3 C3         -0.8133   -2.5493   -1.2726 C.3       1 <0>        -0.1532
      4 C4          0.6001   -0.4899   -1.2139 C.3       1 <0>        -0.0075
      5 N1          1.9789    0.0162   -1.2435 N.4       1 <0>        -0.3878
      6 C5          1.9650    1.4807   -1.1312 C.3       1 <0>        -0.0031
      7 C6          3.4019    2.0070   -1.1431 C.3       1 <0>         0.0269
      8 N2          4.0592    1.6005   -2.3932 N.3       1 <0>        -0.5387
      9 C7          4.0585    0.1373   -2.5314 C.3       1 <0>         0.0215
     10 C8          2.6162   -0.3736   -2.5081 C.3       1 <0>        -0.0074
     11 C9          5.4251    2.1357   -2.4680 C.3       1 <0>         0.0605
     12 C10         5.9859    1.9081   -3.8732 C.3       1 <0>        -0.0889
     13 C11         7.3872    2.4572   -3.9499 C.ar      1 <0>        -0.0452
     14 C12         7.5922    3.7726   -4.3254 C.ar      1 <0>        -0.1050
     15 C13         8.8734    4.2808   -4.3973 C.ar      1 <0>        -0.0618
     16 C14         9.9616    3.4659   -4.0908 C.ar      1 <0>        -0.1031
     17 C15         9.7491    2.1413   -3.7131 C.ar      1 <0>        -0.0933
     18 C16         8.4633    1.6454   -3.6391 C.ar      1 <0>        -0.1074
     19 C17        11.3410    4.0062   -4.1667 C.ar      1 <0>         0.2314
     20 C18        11.5423    5.3319   -4.5399 C.ar      1 <0>        -0.1641
     21 C19        12.8351    5.8272   -4.6074 C.ar      1 <0>         0.0433
     22 C20        13.8862    4.9803   -4.2993 C.ar      1 <0>        -0.1985
     23 C21        13.6164    3.6651   -3.9332 C.ar      1 <0>         0.4590
     24 N3         12.3712    3.2223   -3.8729 N.ar      1 <0>        -0.5091
     25 N4         14.6664    2.8087   -3.6229 N.pl3     1 <0>        -0.8199
     26 H1          2.3013   -2.1929    0.1549 H         1 <0>         0.0488
     27 H2          0.7271   -2.0427    0.9720 H         1 <0>         0.0732
     28 H3          1.1843   -3.5781    0.1960 H         1 <0>         0.0856
     29 H4          1.2008   -2.3947   -2.0214 H         1 <0>         0.0923
     30 H5         -1.3950   -2.1741   -0.4307 H         1 <0>         0.0693
     31 H6         -1.2653   -2.2125   -2.2055 H         1 <0>         0.0687
     32 H7         -0.7998   -3.6390   -1.2481 H         1 <0>         0.0788
     33 H8          0.0702   -0.1531   -2.1049 H         1 <0>         0.1331
     34 H9          0.0936   -0.1127   -0.3255 H         1 <0>         0.1332
     35 H10         1.4159    1.9044   -1.9722 H         1 <0>         0.1398
     36 H11         1.4802    1.7690   -0.1985 H         1 <0>         0.1376
     37 H12         3.3913    3.0948   -1.0748 H         1 <0>         0.1255
     38 H13         3.9474    1.5943   -0.2945 H         1 <0>         0.0610
     39 H14         4.5270   -0.1390   -3.4761 H         1 <0>         0.1244
     40 H15         4.6148   -0.3063   -1.7057 H         1 <0>         0.0607
     41 H16         2.6141   -1.4600   -2.5963 H         1 <0>         0.1370
     42 H17         2.0638    0.0596   -3.3420 H         1 <0>         0.1399
     43 H18         5.4091    3.2040   -2.2518 H         1 <0>         0.0927
     44 H19         6.0552    1.6268   -1.7385 H         1 <0>         0.0491
     45 H20         6.0019    0.8399   -4.0894 H         1 <0>         0.0815
     46 H21         5.3558    2.4170   -4.6027 H         1 <0>         0.0968
     47 H22         6.7482    4.4031   -4.5630 H         1 <0>         0.1444
     48 H23         9.0323    5.3079   -4.6909 H         1 <0>         0.1450
     49 H24        10.5888    1.5054   -3.4744 H         1 <0>         0.1224
     50 H25         8.2971    0.6205   -3.3419 H         1 <0>         0.1368
     51 H26        10.7010    5.9671   -4.7745 H         1 <0>         0.1806
     52 H27        13.0187    6.8520   -4.8946 H         1 <0>         0.1803
     53 H28        14.9049    5.3366   -4.3430 H         1 <0>         0.1836
     54 H29        15.5812    3.1288   -3.6622 H         1 <0>         0.4434
     55 H30        14.4843    1.8909   -3.3671 H         1 <0>         0.4210
     56 H31         2.4972   -0.3750   -0.4713 H         1 <0>         0.4184
     57 H32        12.2074    2.3026   -3.6116 H         1 <0>         0.4355
@<TRIPOS>BOND
     1    1    2 1
     2    1   26 1
     3    1   27 1
     4    1   28 1
     5    2    3 1
     6    2    4 1
     7    2   29 1
     8    3   30 1
     9    3   31 1
    10    3   32 1
    11    4    5 1
    12    4   33 1
    13    4   34 1
    14    5   10 1
    15    5    6 1
    16    5   56 1
    17    6    7 1
    18    6   35 1
    19    6   36 1
    20    7    8 1
    21    7   37 1
    22    7   38 1
    23    8    9 1
    24    8   11 1
    25    9   10 1
    26    9   39 1
    27    9   40 1
    28   10   41 1
    29   10   42 1
    30   11   12 1
    31   11   43 1
    32   11   44 1
    33   12   13 1
    34   12   45 1
    35   12   46 1
    36   13   18 ar
    37   13   14 ar
    38   14   15 ar
    39   14   47 1
    40   15   16 ar
    41   15   48 1
    42   16   17 ar
    43   16   19 1
    44   17   18 ar
    45   17   49 1
    46   18   50 1
    47   19   24 ar
    48   19   20 ar
    49   20   21 ar
    50   20   51 1
    51   21   22 ar
    52   21   52 1
    53   22   23 ar
    54   22   53 1
    55   23   24 ar
    56   23   25 1
    57   24   57 1
    58   25   54 1
    59   25   55 1
@<TRIPOS>MOLECULE
CHEMBL86810__1
   57    59     0     0     0
SMALL
USER_CHARGES

@<TRIPOS>ATOM
      1 C1         -0.0187    1.5258    0.0104 C.3       1 <0>        -0.1548
      2 C2          0.0021   -0.0041    0.0020 C.3       1 <0>        -0.0923
      3 C3          0.7421   -0.5109    1.2415 C.3       1 <0>        -0.1428
      4 C4         -1.4333   -0.5336    0.0129 C.3       1 <0>         0.0575
      5 N1         -1.4164   -1.9969   -0.1159 N.3       1 <0>        -0.5366
      6 C5         -0.9091   -2.4038   -1.4339 C.3       1 <0>         0.0199
      7 C6         -0.8513   -3.9313   -1.5055 C.3       1 <0>        -0.0007
      8 N2         -2.1950   -4.4831   -1.2872 N.4       1 <0>        -0.3872
      9 C7         -2.6780   -4.0887    0.0427 C.3       1 <0>        -0.0063
     10 C8         -2.7510   -2.5625    0.1272 C.3       1 <0>         0.0249
     11 C9         -2.1423   -5.9486   -1.3740 C.3       1 <0>        -0.0044
     12 C10        -3.5591   -6.5168   -1.2711 C.3       1 <0>        -0.1131
     13 C11        -3.5050   -8.0202   -1.3601 C.ar      1 <0>        -0.0615
     14 C12        -3.5879   -8.6409   -2.5935 C.ar      1 <0>        -0.1000
     15 C13        -3.5389  -10.0173   -2.6810 C.ar      1 <0>        -0.0636
     16 C14        -3.4057  -10.7822   -1.5236 C.ar      1 <0>        -0.0870
     17 C15        -3.3226  -10.1515   -0.2836 C.ar      1 <0>        -0.0938
     18 C16        -3.3670   -8.7741   -0.2086 C.ar      1 <0>        -0.0989
     19 C17        -3.3529  -12.2620   -1.6112 C.ar      1 <0>         0.2213
     20 C18        -3.4314  -12.8821   -2.8548 C.ar      1 <0>        -0.1587
     21 C19        -3.3807  -14.2654   -2.9258 C.ar      1 <0>         0.0425
     22 C20        -3.2531  -14.9852   -1.7500 C.ar      1 <0>        -0.1933
     23 C21        -3.1799  -14.3038   -0.5388 C.ar      1 <0>         0.4613
     24 N3         -3.2259  -12.9820   -0.5032 N.ar      1 <0>        -0.5086
     25 N4         -3.0522  -15.0194    0.6459 N.pl3     1 <0>        -0.8171
     26 H1          1.0039    1.9031    0.0027 H         1 <0>         0.0656
     27 H2         -0.5459    1.8868   -0.8726 H         1 <0>         0.0562
     28 H3         -0.5289    1.8773    0.9072 H         1 <0>         0.0605
     29 H4          0.5123   -0.3556   -0.8948 H         1 <0>         0.0692
     30 H5          0.7568   -1.6008    1.2356 H         1 <0>         0.0595
     31 H6          1.7647   -0.1336    1.2338 H         1 <0>         0.0559
     32 H7          0.2319   -0.1594    2.1383 H         1 <0>         0.0555
     33 H8         -1.9156   -0.2570    0.9504 H         1 <0>         0.0902
     34 H9         -1.9862   -0.1019   -0.8214 H         1 <0>         0.0480
     35 H10        -1.5743   -2.0282   -2.2114 H         1 <0>         0.0617
     36 H11         0.0905   -1.9948   -1.5811 H         1 <0>         0.1277
     37 H12        -0.4888   -4.2356   -2.4874 H         1 <0>         0.1360
     38 H13        -0.1755   -4.3058   -0.7367 H         1 <0>         0.1380
     39 H14        -3.6697   -4.5096    0.2086 H         1 <0>         0.1347
     40 H15        -1.9928   -4.4623    0.8036 H         1 <0>         0.1385
     41 H16        -3.0952   -2.2692    1.1190 H         1 <0>         0.1245
     42 H17        -3.4465   -2.1895   -0.6246 H         1 <0>         0.0611
     43 H18        -1.7021   -6.2405   -2.3274 H         1 <0>         0.1344
     44 H19        -1.5340   -6.3392   -0.5582 H         1 <0>         0.1330
     45 H20        -3.9993   -6.2249   -0.3176 H         1 <0>         0.1038
     46 H21        -4.1674   -6.1262   -2.0868 H         1 <0>         0.1049
     47 H22        -3.6915   -8.0472   -3.4897 H         1 <0>         0.1452
     48 H23        -3.6040  -10.5009   -3.6445 H         1 <0>         0.1483
     49 H24        -3.2193  -10.7393    0.6165 H         1 <0>         0.1269
     50 H25        -3.2980   -8.2841    0.7514 H         1 <0>         0.1420
     51 H26        -3.5309  -12.2922   -3.7540 H         1 <0>         0.1809
     52 H27        -3.4399  -14.7711   -3.8783 H         1 <0>         0.1817
     53 H28        -3.2112  -16.0641   -1.7725 H         1 <0>         0.1853
     54 H29        -3.0146  -15.9884    0.6255 H         1 <0>         0.4446
     55 H30        -3.0007  -14.5497    1.4931 H         1 <0>         0.4220
     56 H31        -2.8231   -4.1272   -1.9921 H         1 <0>         0.4221
     57 H32        -3.1693  -12.5288    0.3525 H         1 <0>         0.4358
@<TRIPOS>BOND
     1    1    2 1
     2    1   26 1
     3    1   27 1
     4    1   28 1
     5    2    3 1
     6    2    4 1
     7    2   29 1
     8    3   30 1
     9    3   31 1
    10    3   32 1
    11    4    5 1
    12    4   33 1
    13    4   34 1
    14    5   10 1
    15    5    6 1
    16    6    7 1
    17    6   35 1
    18    6   36 1
    19    7    8 1
    20    7   37 1
    21    7   38 1
    22    8    9 1
    23    8   11 1
    24    8   56 1
    25    9   10 1
    26    9   39 1
    27    9   40 1
    28   10   41 1
    29   10   42 1
    30   11   12 1
    31   11   43 1
    32   11   44 1
    33   12   13 1
    34   12   45 1
    35   12   46 1
    36   13   18 ar
    37   13   14 ar
    38   14   15 ar
    39   14   47 1
    40   15   16 ar
    41   15   48 1
    42   16   17 ar
    43   16   19 1
    44   17   18 ar
    45   17   49 1
    46   18   50 1
    47   19   24 ar
    48   19   20 ar
    49   20   21 ar
    50   20   51 1
    51   21   22 ar
    52   21   52 1
    53   22   23 ar
    54   22   53 1
    55   23   24 ar
    56   23   25 1
    57   24   57 1
    58   25   54 1
    59   25   55 1
@<TRIPOS>MOLECULE
CHEMBL86810__2
   56    58     0     0     0
SMALL
USER_CHARGES

@<TRIPOS>ATOM
      1 C1         -0.0187    1.5258    0.0104 C.3       1 <0>        -0.1520
      2 C2          0.0021   -0.0041    0.0020 C.3       1 <0>        -0.1192
      3 C3          0.7421   -0.5109    1.2415 C.3       1 <0>        -0.1694
      4 C4         -1.4333   -0.5336    0.0129 C.3       1 <0>        -0.0068
      5 N1         -1.4164   -1.9969   -0.1159 N.4       1 <0>        -0.3877
      6 C5         -0.8741   -2.3662   -1.4300 C.3       1 <0>        -0.0064
      7 C6         -0.8387   -3.8908   -1.5573 C.3       1 <0>         0.0265
      8 N2         -2.1994   -4.4242   -1.4021 N.3       1 <0>        -0.5389
      9 C7         -2.7649   -4.0413   -0.1007 C.3       1 <0>         0.0203
     10 C8         -2.7844   -2.5155    0.0145 C.3       1 <0>        -0.0022
     11 C9         -2.2159   -5.8830   -1.5745 C.3       1 <0>         0.0599
     12 C10        -3.6638   -6.3707   -1.6553 C.3       1 <0>        -0.0755
     13 C11        -3.6807   -7.8671   -1.8322 C.ar      1 <0>        -0.0851
     14 C12        -3.6636   -8.4109   -3.1040 C.ar      1 <0>        -0.1184
     15 C13        -3.6789   -9.7806   -3.2720 C.ar      1 <0>        -0.0749
     16 C14        -3.7117  -10.6164   -2.1572 C.ar      1 <0>        -0.0419
     17 C15        -3.7288  -10.0630   -0.8783 C.ar      1 <0>        -0.0952
     18 C16        -3.7075   -8.6919   -0.7221 C.ar      1 <0>        -0.1194
     19 C17        -3.7288  -12.0894   -2.3314 C.ar      1 <0>         0.2089
     20 C18        -3.7673  -12.9154   -1.2118 C.ar      1 <0>        -0.2223
     21 C19        -3.7835  -14.2904   -1.3853 C.ar      1 <0>        -0.0292
     22 C20        -3.7606  -14.7961   -2.6740 C.ar      1 <0>        -0.2370
     23 C21        -3.7223  -13.9153   -3.7507 C.ar      1 <0>         0.4110
     24 N3         -3.7127  -12.6071   -3.5536 N.ar      1 <0>        -0.5404
     25 N4         -3.6986  -14.4153   -5.0474 N.pl3     1 <0>        -0.8507
     26 H1          1.0039    1.9031    0.0027 H         1 <0>         0.0776
     27 H2         -0.5459    1.8868   -0.8726 H         1 <0>         0.0680
     28 H3         -0.5289    1.8773    0.9072 H         1 <0>         0.0682
     29 H4          0.5123   -0.3556   -0.8948 H         1 <0>         0.0933
     30 H5          0.2319   -0.1594    2.1383 H         1 <0>         0.0734
     31 H6          0.7568   -1.6008    1.2356 H         1 <0>         0.0487
     32 H7          1.7647   -0.1336    1.2338 H         1 <0>         0.0839
     33 H8         -1.9156   -0.2570    0.9504 H         1 <0>         0.1315
     34 H9         -1.9862   -0.1019   -0.8214 H         1 <0>         0.1320
     35 H10        -1.5071   -1.9508   -2.2141 H         1 <0>         0.1387
     36 H11         0.1362   -1.9697   -1.5306 H         1 <0>         0.1355
     37 H12        -0.4502   -4.1650   -2.5381 H         1 <0>         0.1241
     38 H13        -0.1948   -4.3056   -0.7817 H         1 <0>         0.0598
     39 H14        -3.7818   -4.4252   -0.0189 H         1 <0>         0.1264
     40 H15        -2.1528   -4.4586    0.6988 H         1 <0>         0.0605
     41 H16        -3.1904   -2.2296    0.9849 H         1 <0>         0.1349
     42 H17        -3.4077   -2.0993   -0.7769 H         1 <0>         0.1383
     43 H18        -1.6920   -6.1461   -2.4935 H         1 <0>         0.0910
     44 H19        -1.7204   -6.3547   -0.7260 H         1 <0>         0.0494
     45 H20        -4.1876   -6.1075   -0.7364 H         1 <0>         0.0726
     46 H21        -4.1593   -5.8989   -2.5039 H         1 <0>         0.0861
     47 H22        -3.6385   -7.7622   -3.9672 H         1 <0>         0.1254
     48 H23        -3.6659  -10.2041   -4.2654 H         1 <0>         0.1363
     49 H24        -3.7542  -10.7060   -0.0109 H         1 <0>         0.1302
     50 H25        -3.7159   -8.2621    0.2686 H         1 <0>         0.1224
     51 H26        -3.7840  -12.4898   -0.2193 H         1 <0>         0.1335
     52 H27        -3.8129  -14.9534   -0.5333 H         1 <0>         0.1375
     53 H28        -3.7720  -15.8630   -2.8418 H         1 <0>         0.1336
     54 H29        -3.7089  -15.3735   -5.1980 H         1 <0>         0.4107
     55 H30        -3.6719  -13.8061   -5.8018 H         1 <0>         0.4046
     56 H31        -0.8367   -2.3915    0.6097 H         1 <0>         0.4181
@<TRIPOS>BOND
     1    1    2 1
     2    1   26 1
     3    1   27 1
     4    1   28 1
     5    2    3 1
     6    2    4 1
     7    2   29 1
     8    3   30 1
     9    3   31 1
    10    3   32 1
    11    4    5 1
    12    4   33 1
    13    4   34 1
    14    5   10 1
    15    5    6 1
    16    5   56 1
    17    6    7 1
    18    6   35 1
    19    6   36 1
    20    7    8 1
    21    7   37 1
    22    7   38 1
    23    8    9 1
    24    8   11 1
    25    9   10 1
    26    9   39 1
    27    9   40 1
    28   10   41 1
    29   10   42 1
    30   11   12 1
    31   11   43 1
    32   11   44 1
    33   12   13 1
    34   12   45 1
    35   12   46 1
    36   13   18 ar
    37   13   14 ar
    38   14   15 ar
    39   14   47 1
    40   15   16 ar
    41   15   48 1
    42   16   17 ar
    43   16   19 1
    44   17   18 ar
    45   17   49 1
    46   18   50 1
    47   19   24 ar
    48   19   20 ar
    49   20   21 ar
    50   20   51 1
    51   21   22 ar
    52   21   52 1
    53   22   23 ar
    54   22   53 1
    55   23   24 ar
    56   23   25 1
    57   25   54 1
    58   25   55 1
@<TRIPOS>MOLECULE
CHEMBL397506
   28    30     0     0     0
SMALL
USER_CHARGES

@<TRIPOS>ATOM
      1 C1          0.6063   -0.0322    2.1717 C.2       1 <0>        -0.1815
      2 C2          1.9198    0.3416    2.3444 C.2       1 <0>        -0.1043
      3 C3          2.6928    0.3709    1.1950 C.2       1 <0>        -0.1918
      4 S1          1.5182   -0.1294   -0.0491 S.3       1 <0>         0.2851
      5 C4          0.1673   -0.3380    0.9275 C.2       1 <0>        -0.2463
      6 C5          4.1092    0.7229    1.0416 C.2       1 <0>         0.5148
      7 N1          4.8531    1.0888    2.1457 N.pl3     1 <0>        -0.8661
      8 N2          4.6701    0.6899   -0.1479 N.2       1 <0>        -0.5619
      9 C6          6.0155    0.9001   -0.2757 C.ar      1 <0>         0.1326
     10 C7          6.5004    1.9254   -1.0983 C.ar      1 <0>        -0.1048
     11 C8          7.8318    2.1506   -1.2395 C.ar      1 <0>        -0.0605
     12 C9          8.7837    1.3555   -0.5581 C.ar      1 <0>         0.1032
     13 C10         8.2706    0.3273    0.2666 C.ar      1 <0>        -0.1351
     14 C11         6.9280    0.0989    0.4170 C.ar      1 <0>        -0.1123
     15 S2          9.7499   -0.4099    0.9185 S.3       1 <0>        -0.0253
     16 C12        10.9182    0.6552    0.0851 C.2       1 <0>         0.4108
     17 N3         10.1313    1.4560   -0.5961 N.2       1 <0>        -0.5778
     18 N4         12.2975    0.6405    0.1435 N.pl3     1 <0>        -0.7944
     19 H1         -0.0636   -0.0852    3.0171 H         1 <0>         0.1360
     20 H2          2.3219    0.5961    3.3139 H         1 <0>         0.1418
     21 H3         -0.8246   -0.6455    0.6310 H         1 <0>         0.1889
     22 H4          4.4334    1.1379    3.0188 H         1 <0>         0.4015
     23 H5          5.7996    2.5501   -1.6322 H         1 <0>         0.1354
     24 H6          8.1700    2.9495   -1.8827 H         1 <0>         0.1331
     25 H7          6.5783   -0.6946    1.0608 H         1 <0>         0.1283
     26 H8         12.7527   -0.0145    0.6955 H         1 <0>         0.4226
     27 H9         12.8115    1.2853   -0.3675 H         1 <0>         0.4189
     28 H10         5.7956    1.2968    2.0483 H         1 <0>         0.4091
@<TRIPOS>BOND
     1    1    5 2
     2    1    2 1
     3    1   19 1
     4    2    3 2
     5    2   20 1
     6    3    4 1
     7    3    6 1
     8    4    5 1
     9    5   21 1
    10    6    7 1
    11    6    8 2
    12    7   22 1
    13    7   28 1
    14    8    9 1
    15    9   14 ar
    16    9   10 ar
    17   10   11 ar
    18   10   23 1
    19   11   12 ar
    20   11   24 1
    21   12   17 1
    22   12   13 ar
    23   13   14 ar
    24   13   15 1
    25   14   25 1
    26   15   16 1
    27   16   17 2
    28   16   18 1
    29   18   26 1
    30   18   27 1
@<TRIPOS>MOLECULE
CHEMBL397506__1
   29    31     0     0     0
SMALL
USER_CHARGES

@<TRIPOS>ATOM
      1 C1          1.0122   -2.1389    0.2127 C.2       1 <0>        -0.1946
      2 C2          2.2997   -1.9062   -0.2163 C.2       1 <0>        -0.0228
      3 C3          2.9987   -0.9352    0.4782 C.2       1 <0>        -0.3324
      4 S1          1.7980   -0.4142    1.6884 S.3       1 <0>         0.3113
      5 C4          0.5272   -1.4240    1.2553 C.2       1 <0>        -0.1731
      6 C5          4.3746   -0.4574    0.2720 C.cat     1 <0>         0.6410
      7 N1          5.2827   -1.2667   -0.2059 N.pl3     1 <0>        -0.7366
      8 N2          4.7067    0.8462    0.5835 N.pl3     1 <0>        -0.5980
      9 C6          6.0401    1.2667    0.5056 C.ar      1 <0>         0.0669
     10 C7          6.3515    2.5412    0.0372 C.ar      1 <0>        -0.0852
     11 C8          7.6485    2.9735   -0.0479 C.ar      1 <0>        -0.0546
     12 C9          8.7189    2.1349    0.3396 C.ar      1 <0>         0.1640
     13 C10         8.3688    0.8493    0.8103 C.ar      1 <0>        -0.1619
     14 C11         7.0685    0.4205    0.8997 C.ar      1 <0>        -0.0784
     15 S2          9.9537    0.1371    1.1820 S.3       1 <0>         0.0218
     16 C12        10.9495    1.5426    0.7057 C.2       1 <0>         0.4423
     17 N3         10.0432    2.4094    0.3170 N.2       1 <0>        -0.5904
     18 N4         12.3229    1.6815    0.7381 N.pl3     1 <0>        -0.7753
     19 H1          0.3964   -2.8779   -0.2783 H         1 <0>         0.1582
     20 H2          2.7364   -2.4478   -1.0424 H         1 <0>         0.1585
     21 H3         -0.4525   -1.4880    1.7053 H         1 <0>         0.2085
     22 H4          6.1635   -0.9286   -0.4312 H         1 <0>         0.4361
     23 H5          4.0164    1.4706    0.8562 H         1 <0>         0.4472
     24 H6          5.5531    3.2026   -0.2656 H         1 <0>         0.1500
     25 H7          7.8562    3.9673   -0.4161 H         1 <0>         0.1524
     26 H8          6.8465   -0.5695    1.2700 H         1 <0>         0.1402
     27 H9         12.8771    0.9502    1.0528 H         1 <0>         0.4303
     28 H10        12.7336    2.5104    0.4461 H         1 <0>         0.4276
     29 H11         5.0759   -2.2055   -0.3355 H         1 <0>         0.4469
@<TRIPOS>BOND
     1    1    5 2
     2    1    2 1
     3    1   19 1
     4    2    3 2
     5    2   20 1
     6    3    4 1
     7    3    6 1
     8    4    5 1
     9    5   21 1
    10    6    7 2
    11    6    8 1
    12    7   22 1
    13    7   29 1
    14    8    9 1
    15    8   23 1
    16    9   14 ar
    17    9   10 ar
    18   10   11 ar
    19   10   24 1
    20   11   12 ar
    21   11   25 1
    22   12   17 1
    23   12   13 ar
    24   13   14 ar
    25   13   15 1
    26   14   26 1
    27   15   16 1
    28   16   17 2
    29   16   18 1
    30   18   27 1
    31   18   28 1
@<TRIPOS>MOLECULE
CHEMBL397506__2
   28    30     0     0     0
SMALL
USER_CHARGES

@<TRIPOS>ATOM
      1 C1          1.1230   -2.2350   -1.1544 C.2       1 <0>        -0.1791
      2 C2          2.4107   -1.8959   -1.5049 C.2       1 <0>        -0.0750
      3 C3          2.9935   -0.8910   -0.7537 C.2       1 <0>        -0.1778
      4 S1          1.6911   -0.4903    0.3956 S.3       1 <0>         0.1972
      5 C4          0.5275   -1.5830   -0.1280 C.2       1 <0>        -0.2265
      6 C5          4.3380   -0.3060   -0.8721 C.2       1 <0>         0.4937
      7 N1          5.1608   -0.7396   -1.7903 N.2       1 <0>        -0.7317
      8 N2          4.7307    0.7013   -0.0132 N.pl3     1 <0>        -0.6967
      9 C6          6.0489    1.1726   -0.0431 C.ar      1 <0>         0.1568
     10 C7          6.3172    2.5287    0.1292 C.ar      1 <0>        -0.1206
     11 C8          7.5986    3.0120    0.1032 C.ar      1 <0>        -0.0538
     12 C9          8.6965    2.1444   -0.1001 C.ar      1 <0>         0.1122
     13 C10         8.3900    0.7755   -0.2708 C.ar      1 <0>        -0.1356
     14 C11         7.1059    0.2931   -0.2391 C.ar      1 <0>        -0.0955
     15 S2          9.9977    0.0517   -0.4907 S.3       1 <0>        -0.0067
     16 C12        10.9454    1.5600   -0.3472 C.2       1 <0>         0.4151
     17 N3         10.0105    2.4609   -0.1516 N.2       1 <0>        -0.5807
     18 N4         12.3132    1.7338   -0.4228 N.pl3     1 <0>        -0.7916
     19 H1          0.5939   -3.0070   -1.6935 H         1 <0>         0.1388
     20 H2          2.9327   -2.3838   -2.3147 H         1 <0>         0.1524
     21 H3         -0.4678   -1.7312    0.2641 H         1 <0>         0.1893
     22 H4          4.0934    1.0824    0.6109 H         1 <0>         0.4081
     23 H5          5.4972    3.2138    0.2862 H         1 <0>         0.1385
     24 H6          7.7726    4.0692    0.2393 H         1 <0>         0.1387
     25 H7          6.9180   -0.7624   -0.3697 H         1 <0>         0.1386
     26 H8         12.8916    0.9697   -0.5729 H         1 <0>         0.4238
     27 H9         12.6956    2.6199   -0.3257 H         1 <0>         0.4199
     28 H10         6.0105   -0.2931   -1.9301 H         1 <0>         0.3481
@<TRIPOS>BOND
     1    1    5 2
     2    1    2 1
     3    1   19 1
     4    2    3 2
     5    2   20 1
     6    3    4 1
     7    3    6 1
     8    4    5 1
     9    5   21 1
    10    6    7 2
    11    6    8 1
    12    7   28 1
    13    8    9 1
    14    8   22 1
    15    9   14 ar
    16    9   10 ar
    17   10   11 ar
    18   10   23 1
    19   11   12 ar
    20   11   24 1
    21   12   17 1
    22   12   13 ar
    23   13   14 ar
    24   13   15 1
    25   14   25 1
    26   15   16 1
    27   16   17 2
    28   16   18 1
    29   18   26 1
    30   18   27 1
@<TRIPOS>MOLECULE
CHEMBL397506__3
   28    30     0     0     0
SMALL
USER_CHARGES

@<TRIPOS>ATOM
      1 C1          1.1485   -2.4091    0.5061 C.2       1 <0>        -0.1756
      2 C2          2.4586   -2.1732    0.8579 C.2       1 <0>        -0.0999
      3 C3          3.0143   -1.0079    0.3607 C.2       1 <0>        -0.2274
      4 S1          1.6565   -0.3219   -0.5686 S.3       1 <0>         0.2056
      5 C4          0.5071   -1.5127   -0.2803 C.2       1 <0>        -0.2270
      6 C5          4.3717   -0.4738    0.5500 C.2       1 <0>         0.4983
      7 N1          5.2371   -1.1308    1.2763 N.2       1 <0>        -0.7309
      8 N2          4.7317    0.7218   -0.0396 N.pl3     1 <0>        -0.6519
      9 C6          6.0555    1.1712    0.0402 C.ar      1 <0>         0.1671
     10 C7          6.3331    2.5322    0.1464 C.ar      1 <0>        -0.1249
     11 C8          7.6202    2.9943    0.2252 C.ar      1 <0>        -0.0632
     12 C9          8.7144    2.0991    0.2016 C.ar      1 <0>         0.1063
     13 C10         8.3984    0.7261    0.0936 C.ar      1 <0>        -0.1393
     14 C11         7.1080    0.2652    0.0201 C.ar      1 <0>        -0.0460
     15 S2         10.0043   -0.0341    0.0985 S.3       1 <0>        -0.0183
     16 C12        10.9638    1.4671    0.2389 C.2       1 <0>         0.4105
     17 N3         10.0331    2.3927    0.2701 N.2       1 <0>        -0.5804
     18 N4         12.3352    1.6158    0.2991 N.pl3     1 <0>        -0.7948
     19 H1          0.6411   -3.2988    0.8488 H         1 <0>         0.1387
     20 H2          3.0170   -2.8545    1.4828 H         1 <0>         0.1431
     21 H3         -0.5104   -1.5539   -0.6401 H         1 <0>         0.1894
     22 H4          4.9843   -1.9707    1.6905 H         1 <0>         0.3507
     23 H5          4.0675    1.2504   -0.5090 H         1 <0>         0.4165
     24 H6          5.5160    3.2382    0.1667 H         1 <0>         0.1338
     25 H7          7.8015    4.0559    0.3061 H         1 <0>         0.1342
     26 H8          6.9124   -0.7941   -0.0569 H         1 <0>         0.1447
     27 H9         12.9097    0.8350    0.2651 H         1 <0>         0.4224
     28 H10        12.7242    2.5011    0.3755 H         1 <0>         0.4183
@<TRIPOS>BOND
     1    1    5 2
     2    1    2 1
     3    1   19 1
     4    2    3 2
     5    2   20 1
     6    3    4 1
     7    3    6 1
     8    4    5 1
     9    5   21 1
    10    6    7 2
    11    6    8 1
    12    7   22 1
    13    8    9 1
    14    8   23 1
    15    9   14 ar
    16    9   10 ar
    17   10   11 ar
    18   10   24 1
    19   11   12 ar
    20   11   25 1
    21   12   17 1
    22   12   13 ar
    23   13   14 ar
    24   13   15 1
    25   14   26 1
    26   15   16 1
    27   16   17 2
    28   16   18 1
    29   18   27 1
    30   18   28 1
@<TRIPOS>MOLECULE
CHEMBL233228
   28    30     0     0     0
SMALL
USER_CHARGES

@<TRIPOS>ATOM
      1 C1          0.8386   -0.7147   -2.2571 C.2       1 <0>        -0.1815
      2 C2          2.1503   -0.3284   -2.4145 C.2       1 <0>        -0.1049
      3 C3          2.8123    0.0393   -1.2544 C.2       1 <0>        -0.1908
      4 S1          1.5435   -0.1840   -0.0223 S.3       1 <0>         0.2844
      5 C4          0.2958   -0.7108   -1.0163 C.2       1 <0>        -0.2469
      6 C5          4.1974    0.4936   -1.0841 C.2       1 <0>         0.5158
      7 N1          5.0289    0.5992   -2.1808 N.pl3     1 <0>        -0.8661
      8 N2          4.6465    0.8003    0.1137 N.2       1 <0>        -0.5670
      9 C6          5.8960    1.3389    0.2587 C.ar      1 <0>         0.1466
     10 C7          6.2196    2.5206   -0.4208 C.ar      1 <0>        -0.1685
     11 C8          7.4812    3.0591   -0.2707 C.ar      1 <0>        -0.0303
     12 C9          8.3989    2.4338    0.5383 C.ar      1 <0>        -0.1821
     13 C10         8.1158    1.2408    1.2423 C.ar      1 <0>         0.1507
     14 C11         6.8177    0.7096    1.0794 C.ar      1 <0>        -0.0972
     15 N3          9.1262    0.7514    1.9952 N.2       1 <0>        -0.5864
     16 C12        10.2976    1.3407    2.0723 C.2       1 <0>         0.4212
     17 S2         10.0819    2.7596    1.0074 S.3       1 <0>        -0.0235
     18 N4         11.4118    0.9608    2.7926 N.pl3     1 <0>        -0.7917
     19 H1          0.2491   -1.0124   -3.1117 H         1 <0>         0.1358
     20 H2          2.6327   -0.3132   -3.3807 H         1 <0>         0.1419
     21 H3         -0.7094   -0.9839   -0.7310 H         1 <0>         0.1887
     22 H4          4.7110    0.3333   -3.0578 H         1 <0>         0.4010
     23 H5          5.4908    3.0039   -1.0546 H         1 <0>         0.1336
     24 H6          7.7466    3.9693   -0.7879 H         1 <0>         0.1318
     25 H7          6.5423   -0.1981    1.5959 H         1 <0>         0.1328
     26 H8         11.3875    0.1572    3.3354 H         1 <0>         0.4196
     27 H9         12.2191    1.4973    2.7561 H         1 <0>         0.4236
     28 H10         5.9311    0.9392   -2.0745 H         1 <0>         0.4093
@<TRIPOS>BOND
     1    1    5 2
     2    1    2 1
     3    1   19 1
     4    2    3 2
     5    2   20 1
     6    3    4 1
     7    3    6 1
     8    4    5 1
     9    5   21 1
    10    6    7 1
    11    6    8 2
    12    7   22 1
    13    7   28 1
    14    8    9 1
    15    9   14 ar
    16    9   10 ar
    17   10   11 ar
    18   10   23 1
    19   11   12 ar
    20   11   24 1
    21   12   17 1
    22   12   13 ar
    23   13   14 ar
    24   13   15 1
    25   14   25 1
    26   15   16 2
    27   16   17 1
    28   16   18 1
    29   18   26 1
    30   18   27 1
@<TRIPOS>MOLECULE
CHEMBL233228__1
   28    30     0     0     0
SMALL
USER_CHARGES

@<TRIPOS>ATOM
      1 C1          0.1648    0.4024   -1.4343 C.2       1 <0>        -0.1791
      2 C2          1.2856    1.1914   -1.5656 C.2       1 <0>        -0.0754
      3 C3          2.3794    0.8132   -0.8076 C.2       1 <0>        -0.1773
      4 S1          1.7581   -0.6272    0.0391 S.3       1 <0>         0.1969
      5 C4          0.2037   -0.6611   -0.5971 C.2       1 <0>        -0.2271
      6 C5          3.7090    1.4369   -0.7229 C.2       1 <0>         0.4956
      7 N1          3.9774    2.5020   -1.4310 N.2       1 <0>        -0.7306
      8 N2          4.6734    0.8969    0.1049 N.pl3     1 <0>        -0.7034
      9 C6          5.8945    1.5588    0.2819 C.ar      1 <0>         0.1792
     10 C7          5.9066    2.9460    0.4099 C.ar      1 <0>        -0.1564
     11 C8          7.1129    3.5976    0.5850 C.ar      1 <0>        -0.0199
     12 C9          8.2772    2.8721    0.6302 C.ar      1 <0>        -0.1805
     13 C10         8.3072    1.4649    0.5044 C.ar      1 <0>         0.1595
     14 C11         7.0584    0.8253    0.3316 C.ar      1 <0>        -0.1159
     15 N3          9.5317    0.8970    0.5697 N.2       1 <0>        -0.5888
     16 C12        10.6276    1.6014    0.7391 C.2       1 <0>         0.4240
     17 S2          9.9970    3.2711    0.8314 S.3       1 <0>        -0.0102
     18 N4         11.9335    1.1634    0.8248 N.pl3     1 <0>        -0.7891
     19 H1         -0.7339    0.6311   -1.9879 H         1 <0>         0.1387
     20 H2          1.3095    2.0509   -2.2191 H         1 <0>         0.1526
     21 H3         -0.5844   -1.3688   -0.3864 H         1 <0>         0.1890
     22 H4          4.8783    2.8613   -1.4441 H         1 <0>         0.3486
     23 H5          4.5050    0.0591    0.5637 H         1 <0>         0.4064
     24 H6          4.9839    3.5060    0.3723 H         1 <0>         0.1431
     25 H7          7.1394    4.6726    0.6855 H         1 <0>         0.1391
     26 H8          7.0174   -0.2495    0.2338 H         1 <0>         0.1358
     27 H9         12.1329    0.2164    0.7578 H         1 <0>         0.4204
     28 H10        12.6521    1.8024    0.9519 H         1 <0>         0.4247
@<TRIPOS>BOND
     1    1    5 2
     2    1    2 1
     3    1   19 1
     4    2    3 2
     5    2   20 1
     6    3    4 1
     7    3    6 1
     8    4    5 1
     9    5   21 1
    10    6    7 2
    11    6    8 1
    12    7   22 1
    13    8    9 1
    14    8   23 1
    15    9   14 ar
    16    9   10 ar
    17   10   11 ar
    18   10   24 1
    19   11   12 ar
    20   11   25 1
    21   12   17 1
    22   12   13 ar
    23   13   14 ar
    24   13   15 1
    25   14   26 1
    26   15   16 2
    27   16   17 1
    28   16   18 1
    29   18   27 1
    30   18   28 1
@<TRIPOS>MOLECULE
CHEMBL233228__2
   28    30     0     0     0
SMALL
USER_CHARGES

@<TRIPOS>ATOM
      1 C1          0.0190    1.3238   -0.6461 C.2       1 <0>        -0.1756
      2 C2          1.2441    1.8224   -1.0288 C.2       1 <0>        -0.1001
      3 C3          2.3474    1.1915   -0.4825 C.2       1 <0>        -0.2271
      4 S1          1.5877   -0.0610    0.5333 S.3       1 <0>         0.2053
      5 C4         -0.0262    0.2795    0.2146 C.2       1 <0>        -0.2275
      6 C5          3.7755    1.4790   -0.6869 C.2       1 <0>         0.5005
      7 N1          4.1392    2.4510   -1.4811 N.2       1 <0>        -0.7294
      8 N2          4.7318    0.7217   -0.0396 N.pl3     1 <0>        -0.6595
      9 C6          6.0849    1.0669   -0.1414 C.ar      1 <0>         0.1927
     10 C7          6.4495    2.4113   -0.1251 C.ar      1 <0>        -0.1005
     11 C8          7.7858    2.7500   -0.2253 C.ar      1 <0>        -0.0381
     12 C9          8.7310    1.7613   -0.3389 C.ar      1 <0>        -0.1733
     13 C10         8.4022    0.3871   -0.3592 C.ar      1 <0>         0.1466
     14 C11         7.0288    0.0706   -0.2499 C.ar      1 <0>        -0.1199
     15 N3          9.4460   -0.4632   -0.4763 N.2       1 <0>        -0.5862
     16 C12        10.6886   -0.0463   -0.5659 C.2       1 <0>         0.4182
     17 S2         10.5014    1.7294   -0.4883 S.3       1 <0>        -0.0222
     18 N4         11.8446   -0.7902   -0.6880 N.pl3     1 <0>        -0.7928
     19 H1         -0.8930    1.7624   -1.0234 H         1 <0>         0.1386
     20 H2          1.3377    2.6531   -1.7126 H         1 <0>         0.1433
     21 H3         -0.8998   -0.2199    0.6068 H         1 <0>         0.1892
     22 H4          4.4661   -0.0493    0.4856 H         1 <0>         0.4150
     23 H5          5.6965    3.1803   -0.0356 H         1 <0>         0.1449
     24 H6          8.0848    3.7878   -0.2146 H         1 <0>         0.1337
     25 H7          6.7165   -0.9633   -0.2553 H         1 <0>         0.1315
     26 H8         11.7973   -1.7587   -0.7172 H         1 <0>         0.4189
     27 H9         12.7044   -0.3447   -0.7446 H         1 <0>         0.4233
     28 H10         3.4674    2.9829   -1.9358 H         1 <0>         0.3506
@<TRIPOS>BOND
     1    1    5 2
     2    1    2 1
     3    1   19 1
     4    2    3 2
     5    2   20 1
     6    3    4 1
     7    3    6 1
     8    4    5 1
     9    5   21 1
    10    6    7 2
    11    6    8 1
    12    7   28 1
    13    8    9 1
    14    8   22 1
    15    9   14 ar
    16    9   10 ar
    17   10   11 ar
    18   10   23 1
    19   11   12 ar
    20   11   24 1
    21   12   17 1
    22   12   13 ar
    23   13   14 ar
    24   13   15 1
    25   14   25 1
    26   15   16 2
    27   16   17 1
    28   16   18 1
    29   18   26 1
    30   18   27 1
@<TRIPOS>MOLECULE
CHEMBL233228__3
   29    31     0     0     0
SMALL
USER_CHARGES

@<TRIPOS>ATOM
      1 C1          0.2291    0.0346   -0.9246 C.2       1 <0>        -0.1940
      2 C2          1.3255    0.8321   -1.1648 C.2       1 <0>        -0.0242
      3 C3          2.4793    0.4895   -0.4829 C.2       1 <0>        -0.3318
      4 S1          1.9448   -0.9318    0.4509 S.3       1 <0>         0.3096
      5 C4          0.3468   -1.0027   -0.0623 C.2       1 <0>        -0.1735
      6 C5          3.8027    1.1308   -0.5192 C.cat     1 <0>         0.6464
      7 N1          4.2056    1.7368   -1.6047 N.pl3     1 <0>        -0.7329
      8 N2          4.6193    1.0923    0.5937 N.pl3     1 <0>        -0.6068
      9 C6          5.8235    1.8067    0.6035 C.ar      1 <0>         0.1058
     10 C7          5.8632    3.0851    0.0513 C.ar      1 <0>        -0.1746
     11 C8          7.0528    3.7890    0.0623 C.ar      1 <0>        -0.0023
     12 C9          8.1736    3.2210    0.6147 C.ar      1 <0>        -0.1748
     13 C10         8.1746    1.9278    1.1843 C.ar      1 <0>         0.1757
     14 C11         6.9431    1.2339    1.1636 C.ar      1 <0>        -0.0819
     15 N3          9.3573    1.5102    1.6872 N.2       1 <0>        -0.5960
     16 C12        10.4403    2.2532    1.6522 C.2       1 <0>         0.4400
     17 S2          9.8588    3.7364    0.8423 S.3       1 <0>         0.0331
     18 N4         11.7050    1.9625    2.1221 N.pl3     1 <0>        -0.7750
     19 H1         -0.7126    0.2362   -1.4135 H         1 <0>         0.1584
     20 H2          1.2872    1.6718   -1.8430 H         1 <0>         0.1585
     21 H3         -0.4129   -1.7129    0.2292 H         1 <0>         0.2085
     22 H4          5.1104    2.0821   -1.6600 H         1 <0>         0.4384
     23 H5          4.3588    0.5704    1.3687 H         1 <0>         0.4453
     24 H6          4.9747    3.5212   -0.3808 H         1 <0>         0.1449
     25 H7          7.1002    4.7810   -0.3621 H         1 <0>         0.1515
     26 H8          6.8809    0.2428    1.5882 H         1 <0>         0.1482
     27 H9         11.8802    1.1079    2.5462 H         1 <0>         0.4265
     28 H10        12.4186    2.6128    2.0281 H         1 <0>         0.4309
     29 H11         3.5998    1.8414   -2.3550 H         1 <0>         0.4462
@<TRIPOS>BOND
     1    1    5 2
     2    1    2 1
     3    1   19 1
     4    2    3 2
     5    2   20 1
     6    3    4 1
     7    3    6 1
     8    4    5 1
     9    5   21 1
    10    6    7 2
    11    6    8 1
    12    7   22 1
    13    7   29 1
    14    8    9 1
    15    8   23 1
    16    9   14 ar
    17    9   10 ar
    18   10   11 ar
    19   10   24 1
    20   11   12 ar
    21   11   25 1
    22   12   17 1
    23   12   13 ar
    24   13   14 ar
    25   13   15 1
    26   14   26 1
    27   15   16 2
    28   16   17 1
    29   16   18 1
    30   18   27 1
    31   18   28 1
@<TRIPOS>MOLECULE
CHEMBL545441
   54    57     0     0     0
SMALL
USER_CHARGES

@<TRIPOS>ATOM
      1 C1         -0.0167    1.3777    0.0096 C.ar      1 <0>        -0.0981
      2 C2          1.1710    2.0855    0.0021 C.ar      1 <0>        -0.0890
      3 C3          2.3777    1.4116   -0.0130 C.ar      1 <0>        -0.1593
      4 C4          2.3977    0.0294   -0.0210 C.ar      1 <0>        -0.0880
      5 C5          1.2098   -0.6793   -0.0135 C.ar      1 <0>        -0.0361
      6 C6          0.0021   -0.0041    0.0020 C.ar      1 <0>        -0.0730
      7 Cl1         1.2341   -2.4151   -0.0242 Cl        1 <0>        -0.0375
      8 C7          3.6718    2.1839   -0.0212 C.3       1 <0>         0.0484
      9 N1          4.1055    2.4274    1.3610 N.4       1 <0>        -0.5099
     10 C8          5.3669    3.1802    1.3530 C.3       1 <0>        -0.0121
     11 C9          5.8186    3.4338    2.7926 C.3       1 <0>        -0.1459
     12 C10         7.1324    4.2178    2.7843 C.3       1 <0>        -0.0797
     13 C11         7.5773    4.4677    4.2023 C.ar      1 <0>        -0.0584
     14 C12         7.1650    5.6071    4.8691 C.ar      1 <0>        -0.1073
     15 C13         7.5738    5.8390    6.1664 C.ar      1 <0>        -0.0762
     16 C14         8.4009    4.9336    6.8183 C.ar      1 <0>        -0.0972
     17 C15         8.8073    3.7921    6.1501 C.ar      1 <0>         0.1372
     18 C16         8.3934    3.5577    4.8432 C.ar      1 <0>        -0.1269
     19 N2          9.6281    2.8438    6.7778 N.pl3     1 <0>        -0.6456
     20 C17        10.2357    3.2165    7.9589 C.cat     1 <0>         0.5606
     21 C18         9.4199    4.0215    8.9360 C.3       1 <0>        -0.0967
     22 H1         10.0203    4.3111    9.7984 H         1 <0>         0.1441
     23 C19         8.8171    5.2487    8.2292 C.3       1 <0>        -0.0432
     24 H2          9.5221    6.0799    8.2411 H         1 <0>         0.1166
     25 C20         7.5502    5.5780    9.0491 C.3       1 <0>        -0.1200
     26 C21         7.1482    4.2840    9.7781 C.3       1 <0>        -0.1243
     27 C22         8.1796    3.2104    9.3719 C.3       1 <0>        -0.1134
     28 N3         11.4593    2.8868    8.2175 N.pl3     1 <0>        -0.6902
     29 H3         -0.9592    1.9048    0.0259 H         1 <0>         0.1483
     30 H4          1.1559    3.1654    0.0076 H         1 <0>         0.1393
     31 H5          3.3407   -0.4970   -0.0336 H         1 <0>         0.1415
     32 H6         -0.9257   -0.5568    0.0079 H         1 <0>         0.1488
     33 H7          4.4349    1.6086   -0.5454 H         1 <0>         0.1410
     34 H8          3.5229    3.1370   -0.5286 H         1 <0>         0.1434
     35 H9          3.3991    2.9600    1.8463 H         1 <0>         0.4290
     36 H10         6.1300    2.6048    0.8288 H         1 <0>         0.1348
     37 H11         5.2180    4.1333    0.8457 H         1 <0>         0.1369
     38 H12         5.0555    4.0091    3.3168 H         1 <0>         0.0925
     39 H13         5.9675    2.4806    3.3000 H         1 <0>         0.0886
     40 H14         7.8955    3.6425    2.2601 H         1 <0>         0.0895
     41 H15         6.9835    5.1710    2.2770 H         1 <0>         0.0943
     42 H16         6.5210    6.3179    4.3726 H         1 <0>         0.1387
     43 H17         7.2482    6.7322    6.6789 H         1 <0>         0.1454
     44 H18         8.7150    2.6649    4.3275 H         1 <0>         0.1366
     45 H19         7.7682    6.3624    9.7739 H         1 <0>         0.0891
     46 H20         6.7475    5.8965    8.3840 H         1 <0>         0.0862
     47 H21         7.1757    4.4391   10.8566 H         1 <0>         0.0844
     48 H22         6.1488    3.9769    9.4700 H         1 <0>         0.0812
     49 H23         7.8025    2.6141    8.5410 H         1 <0>         0.0791
     50 H24         8.4207    2.5722   10.2220 H         1 <0>         0.0927
     51 H25        11.9678    2.3676    7.5751 H         1 <0>         0.4371
     52 H26        11.8685    3.1587    9.0539 H         1 <0>         0.4556
     53 H27         9.7628    1.9618    6.3972 H         1 <0>         0.4399
     54 H28         4.2433    1.5451    1.8307 H         1 <0>         0.4275
@<TRIPOS>BOND
     1    1    6 ar
     2    1    2 ar
     3    1   29 1
     4    2    3 ar
     5    2   30 1
     6    3    4 ar
     7    3    8 1
     8    4    5 ar
     9    4   31 1
    10    5    6 ar
    11    5    7 1
    12    6   32 1
    13    8    9 1
    14    8   33 1
    15    8   34 1
    16    9   10 1
    17    9   35 1
    18    9   54 1
    19   10   11 1
    20   10   36 1
    21   10   37 1
    22   11   12 1
    23   11   38 1
    24   11   39 1
    25   12   13 1
    26   12   40 1
    27   12   41 1
    28   13   18 ar
    29   13   14 ar
    30   14   15 ar
    31   14   42 1
    32   15   16 ar
    33   15   43 1
    34   16   23 1
    35   16   17 ar
    36   17   18 ar
    37   17   19 1
    38   18   44 1
    39   19   20 1
    40   19   53 1
    41   20   21 1
    42   20   28 2
    43   21   22 1
    44   21   27 1
    45   21   23 1
    46   23   24 1
    47   23   25 1
    48   25   26 1
    49   25   45 1
    50   25   46 1
    51   26   27 1
    52   26   47 1
    53   26   48 1
    54   27   49 1
    55   27   50 1
    56   28   51 1
    57   28   52 1
@<TRIPOS>MOLECULE
CHEMBL349071
   29    31     0     0     0
SMALL
USER_CHARGES

@<TRIPOS>ATOM
      1 C1         -0.0166    1.3756    0.0096 C.ar      1 <0>        -0.1042
      2 C2          1.1690    2.0878    0.0021 C.ar      1 <0>        -0.0788
      3 C3          2.3726    1.4126   -0.0160 C.ar      1 <0>        -0.1224
      4 C4          2.3917    0.0221   -0.0257 C.ar      1 <0>         0.1206
      5 C5          1.2075   -0.6936   -0.0126 C.ar      1 <0>        -0.1033
      6 C6          0.0021   -0.0041    0.0020 C.ar      1 <0>        -0.0795
      7 C7          1.1594   -2.1972   -0.0058 C.3       1 <0>        -0.0613
      8 H1          0.8086   -2.5619    0.9597 H         1 <0>         0.1239
      9 C8          0.2125   -2.6601   -1.1345 C.3       1 <0>        -0.1196
     10 C9          1.1010   -2.9993   -2.3442 C.3       1 <0>        -0.1245
     11 C10         2.5566   -2.7234   -1.9128 C.3       1 <0>        -0.1253
     12 C11         2.5255   -2.8165   -0.3500 C.3       1 <0>         0.1195
     13 C12         3.6299   -1.9885    0.2528 C.cat     1 <0>         0.5351
     14 N1          3.6302   -0.6357   -0.0540 N.pl3     1 <0>        -0.6313
     15 N2          4.5430   -2.5256    0.9947 N.pl3     1 <0>        -0.6804
     16 F1          2.5944   -4.1474    0.0758 F         1 <0>        -0.1556
     17 H2         -0.9601    1.9011    0.0260 H         1 <0>         0.1427
     18 H3          1.1531    3.1676    0.0100 H         1 <0>         0.1453
     19 H4          3.3008    1.9648   -0.0230 H         1 <0>         0.1406
     20 H5         -0.9284   -0.5523    0.0074 H         1 <0>         0.1445
     21 H6         -0.3408   -3.5444   -0.8183 H         1 <0>         0.0916
     22 H7         -0.4798   -1.8589   -1.3929 H         1 <0>         0.0954
     23 H8          0.9833   -4.0495   -2.6112 H         1 <0>         0.0876
     24 H9          0.8361   -2.3663   -3.1911 H         1 <0>         0.0914
     25 H10         3.2260   -3.4786   -2.3247 H         1 <0>         0.1036
     26 H11         2.8652   -1.7265   -2.2275 H         1 <0>         0.1005
     27 H12         4.5250   -3.4790    1.1722 H         1 <0>         0.4568
     28 H13         5.2460   -1.9749    1.3737 H         1 <0>         0.4414
     29 H14         4.4507   -0.1587   -0.2543 H         1 <0>         0.4456
@<TRIPOS>BOND
     1    1    6 ar
     2    1    2 ar
     3    1   17 1
     4    2    3 ar
     5    2   18 1
     6    3    4 ar
     7    3   19 1
     8    4   14 1
     9    4    5 ar
    10    5    6 ar
    11    5    7 1
    12    6   20 1
    13    7    8 1
    14    7   12 1
    15    7    9 1
    16    9   10 1
    17    9   21 1
    18    9   22 1
    19   10   11 1
    20   10   23 1
    21   10   24 1
    22   11   12 1
    23   11   25 1
    24   11   26 1
    25   12   13 1
    26   12   16 1
    27   13   14 1
    28   13   15 2
    29   14   29 1
    30   15   27 1
    31   15   28 1
@<TRIPOS>MOLECULE
CHEMBL349071__1
   28    30     0     0     0
SMALL
USER_CHARGES

@<TRIPOS>ATOM
      1 C1         -0.0167    1.3773    0.0096 C.ar      1 <0>        -0.1335
      2 C2          1.1674    2.0932    0.0022 C.ar      1 <0>        -0.1033
      3 C3          2.3743    1.4259   -0.0117 C.ar      1 <0>        -0.1054
      4 C4          2.3993    0.0307   -0.0192 C.ar      1 <0>         0.1379
      5 C5          1.2045   -0.6886   -0.0136 C.ar      1 <0>        -0.1353
      6 C6          0.0021   -0.0041    0.0020 C.ar      1 <0>        -0.0936
      7 C7          1.2061   -2.1824   -0.0268 C.3       1 <0>        -0.0630
      8 H1          0.3768   -2.5498    0.5778 H         1 <0>         0.1066
      9 C8          1.0773   -2.7377   -1.4611 C.3       1 <0>        -0.1123
     10 C9          1.5372   -4.2085   -1.2689 C.3       1 <0>        -0.1226
     11 C10         2.7138   -4.1044   -0.2747 C.3       1 <0>        -0.1529
     12 C11         2.5181   -2.7821    0.4937 C.3       1 <0>         0.1199
     13 C12         3.6877   -1.8962    0.1697 C.2       1 <0>         0.4151
     14 N1          3.5950   -0.6318   -0.0317 N.2       1 <0>        -0.5660
     15 N2          4.9286   -2.4686    0.1101 N.pl3     1 <0>        -0.8278
     16 F1          2.4335   -3.0315    1.8677 F         1 <0>        -0.1842
     17 H2         -0.9608    1.9014    0.0260 H         1 <0>         0.1242
     18 H3          1.1465    3.1730    0.0076 H         1 <0>         0.1277
     19 H4          3.2996    1.9829   -0.0172 H         1 <0>         0.1291
     20 H5         -0.9279   -0.5532    0.0082 H         1 <0>         0.1219
     21 H6          0.0442   -2.6934   -1.8059 H         1 <0>         0.0851
     22 H7          1.7391   -2.2077   -2.1461 H         1 <0>         0.0746
     23 H8          0.7316   -4.8088   -0.8462 H         1 <0>         0.0781
     24 H9          1.8733   -4.6307   -2.2160 H         1 <0>         0.0796
     25 H10         2.6987   -4.9505    0.4123 H         1 <0>         0.0929
     26 H11         3.6596   -4.0787   -0.8160 H         1 <0>         0.0874
     27 H12         5.0328   -3.4189    0.2746 H         1 <0>         0.4095
     28 H13         5.7044   -1.9243   -0.0966 H         1 <0>         0.4103
@<TRIPOS>BOND
     1    1    6 ar
     2    1    2 ar
     3    1   17 1
     4    2    3 ar
     5    2   18 1
     6    3    4 ar
     7    3   19 1
     8    4   14 1
     9    4    5 ar
    10    5    6 ar
    11    5    7 1
    12    6   20 1
    13    7    8 1
    14    7   12 1
    15    7    9 1
    16    9   10 1
    17    9   21 1
    18    9   22 1
    19   10   11 1
    20   10   23 1
    21   10   24 1
    22   11   12 1
    23   11   25 1
    24   11   26 1
    25   12   13 1
    26   12   16 1
    27   13   14 2
    28   13   15 1
    29   15   27 1
    30   15   28 1
@<TRIPOS>MOLECULE
CHEMBL39186
   54    58     0     0     0
SMALL
USER_CHARGES

@<TRIPOS>ATOM
      1 C1         -0.0163    1.3565   -0.1682 C.ar      1 <0>        -0.0642
      2 C2          1.1686    2.0887   -0.1700 C.ar      1 <0>        -0.1106
      3 C3          2.3779    1.4631   -0.1442 C.ar      1 <0>        -0.0803
      4 C4          2.4344    0.0602   -0.1148 C.ar      1 <0>        -0.0709
      5 C5          1.2297   -0.6829   -0.1124 C.ar      1 <0>         0.0213
      6 C6          0.0021   -0.0053   -0.1401 C.ar      1 <0>        -0.1490
      7 C7          1.2855   -2.0972   -0.0827 C.ar      1 <0>        -0.1320
      8 C8          2.5160   -2.7320   -0.0564 C.ar      1 <0>        -0.0270
      9 C9          3.6939   -1.9976   -0.0589 C.ar      1 <0>        -0.2274
     10 C10         3.6699   -0.6198   -0.0870 C.ar      1 <0>         0.1908
     11 O1          4.8322    0.0810   -0.0894 O.3       1 <0>        -0.3158
     12 C11         6.0451   -0.6741   -0.0603 C.3       1 <0>         0.0276
     13 C12         7.2406    0.2806   -0.0677 C.3       1 <0>         0.0383
     14 C13         8.5380   -0.5304   -0.0985 C.3       1 <0>        -0.1325
     15 C14         9.3646   -0.1895    1.1484 C.3       1 <0>        -0.1003
     16 C15         8.5264   -0.5209    2.3902 C.3       1 <0>        -0.1396
     17 C16         7.2294    0.2898    2.3410 C.3       1 <0>        -0.0132
     18 N1          7.2011    1.1183    1.1333 N.4       1 <0>        -0.3746
     19 C17         8.3142    2.0705    1.1347 C.3       1 <0>        -0.0073
     20 C18         9.6471    1.3187    1.1442 C.3       1 <0>        -0.1414
     21 C19         0.0372   -2.8920   -0.0794 C.ar      1 <0>         0.2365
     22 C20        -1.0533   -2.4617    0.6744 C.ar      1 <0>        -0.1683
     23 C21        -2.2171   -3.2130    0.6700 C.ar      1 <0>         0.0411
     24 C22        -2.2558   -4.3719   -0.0877 C.ar      1 <0>        -0.1957
     25 C23        -1.1323   -4.7465   -0.8183 C.ar      1 <0>         0.4582
     26 N2         -0.0357   -4.0065   -0.7993 N.ar      1 <0>        -0.5063
     27 N3         -1.1643   -5.9082   -1.5808 N.pl3     1 <0>        -0.8190
     28 H1         -0.9631    1.8759   -0.1848 H         1 <0>         0.1414
     29 H2          1.1278    3.1677   -0.1926 H         1 <0>         0.1400
     30 H3          3.2890    2.0430   -0.1467 H         1 <0>         0.1368
     31 H4         -0.9242   -0.5605   -0.1387 H         1 <0>         0.1436
     32 H5          2.5597   -3.8108   -0.0334 H         1 <0>         0.1350
     33 H6          4.6427   -2.5132   -0.0377 H         1 <0>         0.1433
     34 H7          6.0722   -1.2833    0.8431 H         1 <0>         0.0954
     35 H8          6.0914   -1.3211   -0.9363 H         1 <0>         0.1153
     36 H9          7.1914    0.9149   -0.9528 H         1 <0>         0.1501
     37 H10         8.3033   -1.5948   -0.1013 H         1 <0>         0.1035
     38 H11         9.1059   -0.2772   -0.9937 H         1 <0>         0.1122
     39 H12        10.3000   -0.7489    1.1460 H         1 <0>         0.1244
     40 H13         8.2918   -1.5853    2.3991 H         1 <0>         0.0993
     41 H14         9.0859   -0.2607    3.2887 H         1 <0>         0.1060
     42 H15         6.3778   -0.3905    2.3328 H         1 <0>         0.1240
     43 H16         7.1698    0.9306    3.2207 H         1 <0>         0.1354
     44 H17         8.2573    2.6946    0.2429 H         1 <0>         0.1323
     45 H18         8.2488    2.7019    2.0208 H         1 <0>         0.1345
     46 H19        10.2115    1.5871    2.0372 H         1 <0>         0.1048
     47 H20        10.2204    1.5804    0.2549 H         1 <0>         0.1037
     48 H21        -0.9916   -1.5534    1.2553 H         1 <0>         0.1845
     49 H22        -3.0763   -2.9019    1.2457 H         1 <0>         0.1809
     50 H23        -3.1488   -4.9789   -0.1110 H         1 <0>         0.1842
     51 H24        -1.9667   -6.4528   -1.6016 H         1 <0>         0.4436
     52 H25        -0.3842   -6.1744   -2.0922 H         1 <0>         0.4216
     53 H26         6.3403    1.6446    1.1273 H         1 <0>         0.4284
     54 H27         0.7338   -4.2858   -1.3196 H         1 <0>         0.4375
@<TRIPOS>BOND
     1    1    6 ar
     2    1    2 ar
     3    1   28 1
     4    2    3 ar
     5    2   29 1
     6    3    4 ar
     7    3   30 1
     8    4   10 ar
     9    4    5 ar
    10    5    6 ar
    11    5    7 ar
    12    6   31 1
    13    7    8 ar
    14    7   21 1
    15    8    9 ar
    16    8   32 1
    17    9   10 ar
    18    9   33 1
    19   10   11 1
    20   11   12 1
    21   12   13 1
    22   12   34 1
    23   12   35 1
    24   13   18 1
    25   13   14 1
    26   13   36 1
    27   14   15 1
    28   14   37 1
    29   14   38 1
    30   15   20 1
    31   15   16 1
    32   15   39 1
    33   16   17 1
    34   16   40 1
    35   16   41 1
    36   17   18 1
    37   17   42 1
    38   17   43 1
    39   18   19 1
    40   18   53 1
    41   19   20 1
    42   19   44 1
    43   19   45 1
    44   20   46 1
    45   20   47 1
    46   21   26 ar
    47   21   22 ar
    48   22   23 ar
    49   22   48 1
    50   23   24 ar
    51   23   49 1
    52   24   25 ar
    53   24   50 1
    54   25   26 ar
    55   25   27 1
    56   26   54 1
    57   27   51 1
    58   27   52 1
@<TRIPOS>MOLECULE
CHEMBL39186__1
   53    57     0     0     0
SMALL
USER_CHARGES

@<TRIPOS>ATOM
      1 C1          0.0371    1.2942    0.8620 C.ar      1 <0>        -0.1065
      2 C2          1.2206    2.0281    0.8305 C.ar      1 <0>        -0.1102
      3 C3          2.4172    1.4172    0.6085 C.ar      1 <0>        -0.1040
      4 C4          2.4620    0.0279    0.4085 C.ar      1 <0>        -0.0612
      5 C5          1.2589   -0.7171    0.4411 C.ar      1 <0>         0.0024
      6 C6          0.0444   -0.0547    0.6718 C.ar      1 <0>        -0.0906
      7 C7          1.3029   -2.1177    0.2396 C.ar      1 <0>        -0.0409
      8 C8          2.5206   -2.7374    0.0140 C.ar      1 <0>        -0.0645
      9 C9          3.6970   -2.0014   -0.0168 C.ar      1 <0>        -0.2037
     10 C10         3.6843   -0.6367    0.1765 C.ar      1 <0>         0.1336
     11 O1          4.8450    0.0661    0.1424 O.3       1 <0>        -0.3234
     12 C11         6.0441   -0.6732   -0.0974 C.3       1 <0>         0.0305
     13 C12         7.2398    0.2815   -0.1003 C.3       1 <0>         0.0384
     14 C13         8.5151   -0.5029   -0.4171 C.3       1 <0>        -0.1323
     15 C14         9.4914   -0.3556    0.7573 C.3       1 <0>        -0.1000
     16 C15         8.8078   -0.8863    2.0244 C.3       1 <0>        -0.1385
     17 C16         7.5231   -0.0897    2.2627 C.3       1 <0>        -0.0137
     18 N1          7.3562    0.9187    1.2135 N.4       1 <0>        -0.3738
     19 C17         8.4711    1.8687    1.2289 C.3       1 <0>        -0.0068
     20 C18         9.7871    1.1368    0.9565 C.3       1 <0>        -0.1397
     21 C19         0.0561   -2.9142    0.2704 C.ar      1 <0>         0.2076
     22 C20        -0.2022   -3.8321   -0.7460 C.ar      1 <0>        -0.2156
     23 C21        -1.3721   -4.5728   -0.7071 C.ar      1 <0>        -0.0285
     24 C22        -2.2487   -4.3736    0.3467 C.ar      1 <0>        -0.2334
     25 C23        -1.9319   -3.4414    1.3301 C.ar      1 <0>         0.4082
     26 N2         -0.8045   -2.7516    1.2698 N.ar      1 <0>        -0.5352
     27 N3         -2.8071   -3.2365    2.3903 N.pl3     1 <0>        -0.8500
     28 H1         -0.8990    1.8011    1.0440 H         1 <0>         0.1285
     29 H2          1.1887    3.0966    0.9841 H         1 <0>         0.1276
     30 H3          3.3272    1.9984    0.5860 H         1 <0>         0.1259
     31 H4         -0.8806   -0.6114    0.6990 H         1 <0>         0.1393
     32 H5          2.5553   -3.8059   -0.1395 H         1 <0>         0.1351
     33 H6          4.6358   -2.5052   -0.1940 H         1 <0>         0.1309
     34 H7          6.1754   -1.4174    0.6881 H         1 <0>         0.0893
     35 H8          5.9758   -1.1729   -1.0637 H         1 <0>         0.1104
     36 H9          7.0895    1.0470   -0.8616 H         1 <0>         0.1475
     37 H10         8.2707   -1.5556   -0.5591 H         1 <0>         0.1041
     38 H11         8.9720   -0.1065   -1.3238 H         1 <0>         0.1092
     39 H12        10.4136   -0.8993    0.5523 H         1 <0>         0.1215
     40 H13         8.5649   -1.9409    1.8939 H         1 <0>         0.0997
     41 H14         9.4757   -0.7662    2.8774 H         1 <0>         0.1030
     42 H15         6.6698   -0.7678    2.2516 H         1 <0>         0.1280
     43 H16         7.5783    0.4037    3.2331 H         1 <0>         0.1329
     44 H17         8.3122    2.6252    0.4604 H         1 <0>         0.1305
     45 H18         8.5211    2.3518    2.2047 H         1 <0>         0.1318
     46 H19        10.4593    1.2659    1.8048 H         1 <0>         0.1019
     47 H20        10.2502    1.5407    0.0562 H         1 <0>         0.1015
     48 H21         0.5014   -3.9642   -1.5547 H         1 <0>         0.1333
     49 H22        -1.5963   -5.2904   -1.4825 H         1 <0>         0.1387
     50 H23        -3.1691   -4.9358    0.4044 H         1 <0>         0.1344
     51 H24        -3.6334   -3.7420    2.4418 H         1 <0>         0.4113
     52 H25        -2.5915   -2.5881    3.0787 H         1 <0>         0.4048
     53 H26         6.5067    1.4316    1.3959 H         1 <0>         0.4305
@<TRIPOS>BOND
     1    1    6 ar
     2    1    2 ar
     3    1   28 1
     4    2    3 ar
     5    2   29 1
     6    3    4 ar
     7    3   30 1
     8    4   10 ar
     9    4    5 ar
    10    5    6 ar
    11    5    7 ar
    12    6   31 1
    13    7    8 ar
    14    7   21 1
    15    8    9 ar
    16    8   32 1
    17    9   10 ar
    18    9   33 1
    19   10   11 1
    20   11   12 1
    21   12   13 1
    22   12   34 1
    23   12   35 1
    24   13   18 1
    25   13   14 1
    26   13   36 1
    27   14   15 1
    28   14   37 1
    29   14   38 1
    30   15   20 1
    31   15   16 1
    32   15   39 1
    33   16   17 1
    34   16   40 1
    35   16   41 1
    36   17   18 1
    37   17   42 1
    38   17   43 1
    39   18   19 1
    40   18   53 1
    41   19   20 1
    42   19   44 1
    43   19   45 1
    44   20   46 1
    45   20   47 1
    46   21   26 ar
    47   21   22 ar
    48   22   23 ar
    49   22   48 1
    50   23   24 ar
    51   23   49 1
    52   24   25 ar
    53   24   50 1
    54   25   26 ar
    55   25   27 1
    56   27   51 1
    57   27   52 1
@<TRIPOS>MOLECULE
CHEMBL39186__2
   54    58     0     0     0
SMALL
USER_CHARGES

@<TRIPOS>ATOM
      1 C1          0.0095    1.3197   -0.7475 C.ar      1 <0>        -0.0642
      2 C2          1.1936    2.0531   -0.7313 C.ar      1 <0>        -0.1106
      3 C3          2.3969    1.4360   -0.5713 C.ar      1 <0>        -0.0803
      4 C4          2.4480    0.0408   -0.4198 C.ar      1 <0>        -0.0709
      5 C5          1.2442   -0.7036   -0.4359 C.ar      1 <0>         0.0213
      6 C6          0.0229   -0.0348   -0.6034 C.ar      1 <0>        -0.1490
      7 C7          1.2945   -2.1101   -0.2832 C.ar      1 <0>        -0.1319
      8 C8          2.5190   -2.7362   -0.1205 C.ar      1 <0>        -0.0269
      9 C9          3.6961   -2.0007   -0.1056 C.ar      1 <0>        -0.2275
     10 C10         3.6772   -0.6302   -0.2515 C.ar      1 <0>         0.1908
     11 O1          4.8387    0.0717   -0.2347 O.3       1 <0>        -0.3159
     12 C11         6.0451   -0.6741   -0.0603 C.3       1 <0>         0.0276
     13 C12         7.2406    0.2806   -0.0677 C.3       1 <0>         0.0382
     14 C13         8.5255   -0.5126    0.1805 C.3       1 <0>        -0.1326
     15 C14         9.4616   -0.3273   -1.0210 C.3       1 <0>        -0.1002
     16 C15         9.7509    1.1709   -1.1825 C.3       1 <0>        -0.1406
     17 C16         8.4267    1.9101   -1.3869 C.3       1 <0>        -0.0064
     18 N1          7.3126    0.9593   -1.3639 N.4       1 <0>        -0.3746
     19 C17         7.4435   -0.0153   -2.4496 C.3       1 <0>        -0.0139
     20 C18         8.7354   -0.8180   -2.2804 C.3       1 <0>        -0.1403
     21 C19         0.0470   -2.9060   -0.2969 C.ar      1 <0>         0.2362
     22 C20        -1.0909   -2.4173    0.3426 C.ar      1 <0>        -0.1677
     23 C21        -2.2535   -3.1702    0.3233 C.ar      1 <0>         0.0416
     24 C22        -2.2436   -4.3891   -0.3348 C.ar      1 <0>        -0.1956
     25 C23        -1.0743   -4.8202   -0.9538 C.ar      1 <0>         0.4578
     26 N2          0.0202   -4.0775   -0.9234 N.ar      1 <0>        -0.5062
     27 N3         -1.0575   -6.0422   -1.6158 N.pl3     1 <0>        -0.8193
     28 H1         -0.9328    1.8326   -0.8717 H         1 <0>         0.1415
     29 H2          1.1569    3.1262   -0.8476 H         1 <0>         0.1400
     30 H3          3.3074    2.0167   -0.5613 H         1 <0>         0.1368
     31 H4         -0.9028   -0.5910   -0.6175 H         1 <0>         0.1436
     32 H5          2.5585   -3.8091   -0.0036 H         1 <0>         0.1350
     33 H6          4.6401   -2.5094    0.0230 H         1 <0>         0.1433
     34 H7          6.0098   -1.2048    0.8911 H         1 <0>         0.1161
     35 H8          6.1488   -1.3926   -0.8735 H         1 <0>         0.0947
     36 H9          7.1166    1.0216    0.7221 H         1 <0>         0.1506
     37 H10         9.0130   -0.1451    1.0835 H         1 <0>         0.1127
     38 H11         8.2856   -1.5695    0.2970 H         1 <0>         0.1035
     39 H12        10.3828   -0.8908   -0.8725 H         1 <0>         0.1244
     40 H13        10.2443    1.5463   -0.2860 H         1 <0>         0.1041
     41 H14        10.3941    1.3274   -2.0485 H         1 <0>         0.1047
     42 H15         8.2942    2.6418   -0.5899 H         1 <0>         0.1326
     43 H16         8.4439    2.4239   -2.3480 H         1 <0>         0.1343
     44 H17         6.5909   -0.6940   -2.4311 H         1 <0>         0.1234
     45 H18         7.4659    0.5087   -3.4052 H         1 <0>         0.1350
     46 H19         9.3740   -0.6702   -3.1513 H         1 <0>         0.1058
     47 H20         8.4967   -1.8764   -2.1755 H         1 <0>         0.0990
     48 H21        -1.0664   -1.4629    0.8476 H         1 <0>         0.1848
     49 H22        -3.1488   -2.8145    0.8114 H         1 <0>         0.1811
     50 H23        -3.1345   -4.9988   -0.3668 H         1 <0>         0.1842
     51 H24        -1.8580   -6.5893   -1.6446 H         1 <0>         0.4436
     52 H25        -0.2453   -6.3479   -2.0492 H         1 <0>         0.4212
     53 H26         6.4540    1.4701   -1.5050 H         1 <0>         0.4283
     54 H27         0.8224   -4.3971   -1.3653 H         1 <0>         0.4370
@<TRIPOS>BOND
     1    1    6 ar
     2    1    2 ar
     3    1   28 1
     4    2    3 ar
     5    2   29 1
     6    3    4 ar
     7    3   30 1
     8    4   10 ar
     9    4    5 ar
    10    5    6 ar
    11    5    7 ar
    12    6   31 1
    13    7    8 ar
    14    7   21 1
    15    8    9 ar
    16    8   32 1
    17    9   10 ar
    18    9   33 1
    19   10   11 1
    20   11   12 1
    21   12   13 1
    22   12   34 1
    23   12   35 1
    24   13   18 1
    25   13   14 1
    26   13   36 1
    27   14   15 1
    28   14   37 1
    29   14   38 1
    30   15   20 1
    31   15   16 1
    32   15   39 1
    33   16   17 1
    34   16   40 1
    35   16   41 1
    36   17   18 1
    37   17   42 1
    38   17   43 1
    39   18   19 1
    40   18   53 1
    41   19   20 1
    42   19   44 1
    43   19   45 1
    44   20   46 1
    45   20   47 1
    46   21   26 ar
    47   21   22 ar
    48   22   23 ar
    49   22   48 1
    50   23   24 ar
    51   23   49 1
    52   24   25 ar
    53   24   50 1
    54   25   26 ar
    55   25   27 1
    56   26   54 1
    57   27   51 1
    58   27   52 1
@<TRIPOS>MOLECULE
CHEMBL39186__3
   53    57     0     0     0
SMALL
USER_CHARGES

@<TRIPOS>ATOM
      1 C1          0.0312    1.2441    0.3055 C.ar      1 <0>        -0.1065
      2 C2          1.2112    1.9841    0.2909 C.ar      1 <0>        -0.1102
      3 C3          2.4224    1.3685    0.1998 C.ar      1 <0>        -0.1040
      4 C4          2.4860   -0.0322    0.1198 C.ar      1 <0>        -0.0612
      5 C5          1.2865   -0.7834    0.1352 C.ar      1 <0>         0.0025
      6 C6          0.0567   -0.1158    0.2295 C.ar      1 <0>        -0.0907
      7 C7          1.3495   -2.1954    0.0547 C.ar      1 <0>        -0.0411
      8 C8          2.5819   -2.8201   -0.0378 C.ar      1 <0>        -0.0643
      9 C9          3.7548   -2.0778   -0.0525 C.ar      1 <0>        -0.2039
     10 C10         3.7237   -0.7020    0.0250 C.ar      1 <0>         0.1337
     11 O1          4.8812    0.0066    0.0088 O.3       1 <0>        -0.3234
     12 C11         6.0967   -0.7385   -0.0891 C.3       1 <0>         0.0304
     13 C12         7.2860    0.2240   -0.0930 C.3       1 <0>         0.0385
     14 C13         8.5885   -0.5783   -0.1332 C.3       1 <0>        -0.1324
     15 C14         9.3690   -0.1922   -1.3965 C.3       1 <0>        -0.1000
     16 C15         9.6423    1.3171   -1.3540 C.3       1 <0>        -0.1388
     17 C16         8.3059    2.0586   -1.2745 C.3       1 <0>        -0.0060
     18 N1          7.1994    1.0988   -1.2648 N.4       1 <0>        -0.3739
     19 C17         7.1906    0.3090   -2.4984 C.3       1 <0>        -0.0145
     20 C18         8.4901   -0.4902   -2.6184 C.3       1 <0>        -0.1393
     21 C19         0.1066   -2.9985    0.0698 C.ar      1 <0>         0.2082
     22 C20        -0.0797   -4.0005   -0.8809 C.ar      1 <0>        -0.2164
     23 C21        -1.2466   -4.7465   -0.8574 C.ar      1 <0>        -0.0287
     24 C22        -2.1923   -4.4685    0.1158 C.ar      1 <0>        -0.2337
     25 C23        -1.9455   -3.4546    1.0363 C.ar      1 <0>         0.4087
     26 N2         -0.8193   -2.7614    0.9929 N.ar      1 <0>        -0.5349
     27 N3         -2.8901   -3.1704    2.0155 N.pl3     1 <0>        -0.8496
     28 H1         -0.9169    1.7553    0.3827 H         1 <0>         0.1285
     29 H2          1.1648    3.0614    0.3523 H         1 <0>         0.1276
     30 H3          3.3295    1.9544    0.1888 H         1 <0>         0.1259
     31 H4         -0.8658   -0.6772    0.2422 H         1 <0>         0.1393
     32 H5          2.6311   -3.8972   -0.0989 H         1 <0>         0.1351
     33 H6          4.7053   -2.5856   -0.1249 H         1 <0>         0.1308
     34 H7          6.1785   -1.4137    0.7627 H         1 <0>         0.1102
     35 H8          6.0947   -1.3173   -1.0127 H         1 <0>         0.0896
     36 H9          7.2641    0.8297    0.8130 H         1 <0>         0.1475
     37 H10         9.1858   -0.3496    0.7494 H         1 <0>         0.1092
     38 H11         8.3605   -1.6440   -0.1562 H         1 <0>         0.1040
     39 H12        10.2991   -0.7576   -1.4533 H         1 <0>         0.1215
     40 H13        10.2446    1.5547   -0.4772 H         1 <0>         0.1015
     41 H14        10.1736    1.6176   -2.2570 H         1 <0>         0.1020
     42 H15         8.2764    2.6539   -0.3619 H         1 <0>         0.1305
     43 H16         8.2059    2.7171   -2.1373 H         1 <0>         0.1318
     44 H17         6.3440   -0.3774   -2.4822 H         1 <0>         0.1280
     45 H18         7.0963    0.9768   -3.3547 H         1 <0>         0.1329
     46 H19         9.0163   -0.1976   -3.5270 H         1 <0>         0.1029
     47 H20         8.2619   -1.5555   -2.6530 H         1 <0>         0.0997
     48 H21         0.6767   -4.1927   -1.6274 H         1 <0>         0.1327
     49 H22        -1.4158   -5.5284   -1.5830 H         1 <0>         0.1385
     50 H23        -3.1121   -5.0328    0.1595 H         1 <0>         0.1344
     51 H24        -3.7159   -3.6777    2.0545 H         1 <0>         0.4113
     52 H25        -2.7235   -2.4648    2.6599 H         1 <0>         0.4052
     53 H26         6.3321    1.6120   -1.2166 H         1 <0>         0.4305
@<TRIPOS>BOND
     1    1    6 ar
     2    1    2 ar
     3    1   28 1
     4    2    3 ar
     5    2   29 1
     6    3    4 ar
     7    3   30 1
     8    4   10 ar
     9    4    5 ar
    10    5    6 ar
    11    5    7 ar
    12    6   31 1
    13    7    8 ar
    14    7   21 1
    15    8    9 ar
    16    8   32 1
    17    9   10 ar
    18    9   33 1
    19   10   11 1
    20   11   12 1
    21   12   13 1
    22   12   34 1
    23   12   35 1
    24   13   18 1
    25   13   14 1
    26   13   36 1
    27   14   15 1
    28   14   37 1
    29   14   38 1
    30   15   20 1
    31   15   16 1
    32   15   39 1
    33   16   17 1
    34   16   40 1
    35   16   41 1
    36   17   18 1
    37   17   42 1
    38   17   43 1
    39   18   19 1
    40   18   53 1
    41   19   20 1
    42   19   44 1
    43   19   45 1
    44   20   46 1
    45   20   47 1
    46   21   26 ar
    47   21   22 ar
    48   22   23 ar
    49   22   48 1
    50   23   24 ar
    51   23   49 1
    52   24   25 ar
    53   24   50 1
    54   25   26 ar
    55   25   27 1
    56   27   51 1
    57   27   52 1
@<TRIPOS>MOLECULE
CHEMBL233857
   57    61     0     0     0
SMALL
USER_CHARGES

@<TRIPOS>ATOM
      1 C1         -0.1360    1.8150    0.5328 C.ar      1 <0>        -0.0838
      2 C2          1.0996    2.4129    0.3690 C.ar      1 <0>        -0.1133
      3 C3          2.2447    1.6389    0.3486 C.ar      1 <0>        -0.0982
      4 C4          2.1543    0.2670    0.4925 C.ar      1 <0>        -0.1623
      5 C5          0.9189   -0.3308    0.6572 C.ar      1 <0>        -0.0937
      6 C6         -0.2264    0.4431    0.6762 C.ar      1 <0>        -0.1129
      7 C7          3.4027   -0.5769    0.4692 C.3       1 <0>         0.0445
      8 N1          3.9260   -0.7149    1.8349 N.4       1 <0>        -0.3833
      9 C8          4.3459    0.6010    2.3316 C.3       1 <0>        -0.0059
     10 C9          4.8163    0.4764    3.7824 C.3       1 <0>        -0.1553
     11 C10         5.9970   -0.4966    3.8486 C.3       1 <0>         0.1536
     12 C11         5.5692   -1.8438    3.2595 C.3       1 <0>        -0.1625
     13 C12         5.0709   -1.6333    1.8282 C.3       1 <0>        -0.0021
     14 N2          6.4037   -0.6791    5.2442 N.pl3     1 <0>        -0.6764
     15 C13         7.6967   -1.0604    5.5422 C.2       1 <0>         0.3862
     16 N3          8.6947   -1.2982    4.7225 N.2       1 <0>        -0.5625
     17 C14         9.9201   -1.6678    5.1578 C.ar      1 <0>         0.0849
     18 C15        11.0702   -1.9514    4.3833 C.ar      1 <0>        -0.0536
     19 C16        12.2390   -2.3142    4.9709 C.ar      1 <0>        -0.1069
     20 C17        12.3548   -2.4223    6.3631 C.ar      1 <0>         0.1510
     21 C18        11.2384   -2.1489    7.1587 C.ar      1 <0>        -0.1185
     22 C19        10.0613   -1.7832    6.5603 C.ar      1 <0>        -0.1255
     23 S1          8.4397   -1.3482    7.1419 S.3       1 <0>        -0.0088
     24 N4         13.5416   -2.7903    6.9347 N.2       1 <0>        -0.5682
     25 C20        13.5832   -3.8081    7.7671 C.2       1 <0>         0.5265
     26 N5         12.4556   -4.5775    7.9736 N.pl3     1 <0>        -0.8658
     27 C21        14.8282   -4.1256    8.4763 C.2       1 <0>        -0.2043
     28 C22        15.0830   -5.1445    9.3798 C.2       1 <0>        -0.0974
     29 C23        16.3628   -5.1891    9.8847 C.2       1 <0>        -0.1836
     30 C24        17.2632   -4.2627    9.4783 C.2       1 <0>        -0.2393
     31 S2         16.4089   -3.3057    8.3936 S.3       1 <0>         0.2884
     32 H1         -1.0303    2.4202    0.5532 H         1 <0>         0.1360
     33 H2          1.1702    3.4847    0.2565 H         1 <0>         0.1364
     34 H3          3.2100    2.1059    0.2199 H         1 <0>         0.1315
     35 H4          0.8482   -1.4026    0.7693 H         1 <0>         0.1312
     36 H5         -1.1917   -0.0240    0.8045 H         1 <0>         0.1362
     37 H6          3.1671   -1.5631    0.0691 H         1 <0>         0.1379
     38 H7          4.1528   -0.0988   -0.1607 H         1 <0>         0.1366
     39 H8          5.1631    0.9773    1.7162 H         1 <0>         0.1332
     40 H9          3.5054    1.2932    2.2808 H         1 <0>         0.1377
     41 H10         5.1294    1.4541    4.1487 H         1 <0>         0.1209
     42 H11         3.9998    0.1004    4.3988 H         1 <0>         0.0951
     43 H12         6.8321   -0.0961    3.2738 H         1 <0>         0.1079
     44 H13         6.4204   -2.5246    3.2522 H         1 <0>         0.1188
     45 H14         4.7683   -2.2680    3.8651 H         1 <0>         0.0909
     46 H15         4.7657   -2.5906    1.4057 H         1 <0>         0.1350
     47 H16         5.8726   -1.2094    1.2235 H         1 <0>         0.1334
     48 H17         5.7645   -0.5320    5.9588 H         1 <0>         0.4238
     49 H18        11.0170   -1.8785    3.3071 H         1 <0>         0.1322
     50 H19        13.0985   -2.5243    4.3516 H         1 <0>         0.1385
     51 H20        11.3029   -2.2257    8.2341 H         1 <0>         0.1310
     52 H21        11.6645   -4.4340    7.4310 H         1 <0>         0.4075
     53 H22        14.3258   -5.8580    9.6698 H         1 <0>         0.1421
     54 H23        16.6449   -5.9521   10.5952 H         1 <0>         0.1381
     55 H24        18.2958   -4.1646    9.7791 H         1 <0>         0.1909
     56 H25         3.2036   -1.0838    2.4351 H         1 <0>         0.4222
     57 H26        12.4544   -5.2615    8.6614 H         1 <0>         0.4039
@<TRIPOS>BOND
     1    1    6 ar
     2    1    2 ar
     3    1   32 1
     4    2    3 ar
     5    2   33 1
     6    3    4 ar
     7    3   34 1
     8    4    5 ar
     9    4    7 1
    10    5    6 ar
    11    5   35 1
    12    6   36 1
    13    7    8 1
    14    7   37 1
    15    7   38 1
    16    8   13 1
    17    8    9 1
    18    8   56 1
    19    9   10 1
    20    9   39 1
    21    9   40 1
    22   10   11 1
    23   10   41 1
    24   10   42 1
    25   11   12 1
    26   11   14 1
    27   11   43 1
    28   12   13 1
    29   12   44 1
    30   12   45 1
    31   13   46 1
    32   13   47 1
    33   14   15 1
    34   14   48 1
    35   15   23 1
    36   15   16 2
    37   16   17 1
    38   17   22 ar
    39   17   18 ar
    40   18   19 ar
    41   18   49 1
    42   19   20 ar
    43   19   50 1
    44   20   21 ar
    45   20   24 1
    46   21   22 ar
    47   21   51 1
    48   22   23 1
    49   24   25 2
    50   25   26 1
    51   25   27 1
    52   26   52 1
    53   26   57 1
    54   27   31 1
    55   27   28 2
    56   28   29 1
    57   28   53 1
    58   29   30 2
    59   29   54 1
    60   30   31 1
    61   30   55 1
@<TRIPOS>MOLECULE
CHEMBL233857__1
   58    62     0     0     0
SMALL
USER_CHARGES

@<TRIPOS>ATOM
      1 C1         -1.9932   -1.3086    4.2832 C.ar      1 <0>        -0.0814
      2 C2         -0.9551   -0.7290    3.5779 C.ar      1 <0>        -0.1128
      3 C3          0.2378   -1.4094    3.4199 C.ar      1 <0>        -0.0990
      4 C4          0.3928   -2.6692    3.9675 C.ar      1 <0>        -0.1657
      5 C5         -0.6450   -3.2484    4.6736 C.ar      1 <0>        -0.0932
      6 C6         -1.8384   -2.5686    4.8304 C.ar      1 <0>        -0.1117
      7 C7          1.6929   -3.4113    3.7944 C.3       1 <0>         0.0452
      8 N1          2.5947   -3.0853    4.9072 N.4       1 <0>        -0.3843
      9 C8          2.9413   -1.6600    4.8527 C.3       1 <0>        -0.0064
     10 C9          3.8151   -1.2973    6.0554 C.3       1 <0>        -0.1563
     11 C10         5.0952   -2.1372    6.0212 C.3       1 <0>         0.1475
     12 C11         4.7197   -3.6217    6.0033 C.3       1 <0>        -0.1626
     13 C12         3.8124   -3.8983    4.8025 C.3       1 <0>        -0.0021
     14 N2          5.9014   -1.8501    7.2102 N.pl3     1 <0>        -0.6629
     15 C13         7.2673   -2.0504    7.1831 C.2       1 <0>         0.4218
     16 N3          8.0168   -2.4815    6.1950 N.2       1 <0>        -0.5792
     17 C14         9.3562   -2.6301    6.3109 C.ar      1 <0>         0.1483
     18 C15        10.2707   -3.0817    5.3316 C.ar      1 <0>        -0.0485
     19 C16        11.6084   -3.1767    5.6108 C.ar      1 <0>        -0.0872
     20 C17        12.1152   -2.8339    6.8623 C.ar      1 <0>         0.0843
     21 C18        11.2430   -2.3866    7.8463 C.ar      1 <0>        -0.0824
     22 C19         9.9026   -2.2907    7.5691 C.ar      1 <0>        -0.1543
     23 S1          8.4655   -1.7814    8.4815 S.3       1 <0>         0.0385
     24 N4         13.4865   -2.9394    7.1251 N.pl3     1 <0>        -0.6052
     25 C20        14.1216   -1.9718    7.8781 C.cat     1 <0>         0.6472
     26 N5         13.4724   -0.8984    8.2447 N.pl3     1 <0>        -0.7361
     27 C21        15.5290   -2.1490    8.2675 C.2       1 <0>        -0.3406
     28 C22        16.4978   -1.1885    8.4971 C.2       1 <0>        -0.0179
     29 C23        17.7401   -1.6643    8.8522 C.2       1 <0>        -0.1956
     30 C24        17.9285   -3.0015    8.9510 C.2       1 <0>        -0.1664
     31 S2         16.4285   -3.6573    8.5741 S.3       1 <0>         0.3134
     32 H1         -2.9236   -0.7752    4.4105 H         1 <0>         0.1374
     33 H2         -1.0762    0.2552    3.1501 H         1 <0>         0.1371
     34 H3          1.0486   -0.9569    2.8683 H         1 <0>         0.1307
     35 H4         -0.5241   -4.2327    5.1011 H         1 <0>         0.1313
     36 H5         -2.6493   -3.0212    5.3816 H         1 <0>         0.1374
     37 H6          1.5004   -4.4841    3.7851 H         1 <0>         0.1392
     38 H7          2.1565   -3.1172    2.8528 H         1 <0>         0.1371
     39 H8          3.4874   -1.4543    3.9322 H         1 <0>         0.1341
     40 H9          2.0291   -1.0637    4.8739 H         1 <0>         0.1412
     41 H10         4.0727   -0.2391    6.0122 H         1 <0>         0.1226
     42 H11         3.2697   -1.5024    6.9766 H         1 <0>         0.0981
     43 H12         5.6662   -1.8948    5.1249 H         1 <0>         0.1124
     44 H13         5.6239   -4.2249    5.9227 H         1 <0>         0.1182
     45 H14         4.1931   -3.8751    6.9234 H         1 <0>         0.0941
     46 H15         3.5433   -4.9544    4.7866 H         1 <0>         0.1379
     47 H16         4.3400   -3.6448    3.8830 H         1 <0>         0.1340
     48 H17         5.4756   -1.5193    8.0166 H         1 <0>         0.4301
     49 H18         9.9099   -3.3557    4.3512 H         1 <0>         0.1518
     50 H19        12.2848   -3.5250    4.8442 H         1 <0>         0.1528
     51 H20        11.6171   -2.1166    8.8228 H         1 <0>         0.1427
     52 H21        13.9903   -3.6922    6.7783 H         1 <0>         0.4492
     53 H22        13.8863   -0.2646    8.8512 H         1 <0>         0.4489
     54 H23        16.2927   -0.1323    8.4034 H         1 <0>         0.1590
     55 H24        18.5528   -0.9807    9.0488 H         1 <0>         0.1603
     56 H25        18.8345   -3.5262    9.2162 H         1 <0>         0.2104
     57 H26         2.1331   -3.2839    5.7822 H         1 <0>         0.4233
     58 H27        12.5765   -0.7355    7.9103 H         1 <0>         0.4342
@<TRIPOS>BOND
     1    1    6 ar
     2    1    2 ar
     3    1   32 1
     4    2    3 ar
     5    2   33 1
     6    3    4 ar
     7    3   34 1
     8    4    5 ar
     9    4    7 1
    10    5    6 ar
    11    5   35 1
    12    6   36 1
    13    7    8 1
    14    7   37 1
    15    7   38 1
    16    8   13 1
    17    8    9 1
    18    8   57 1
    19    9   10 1
    20    9   39 1
    21    9   40 1
    22   10   11 1
    23   10   41 1
    24   10   42 1
    25   11   12 1
    26   11   14 1
    27   11   43 1
    28   12   13 1
    29   12   44 1
    30   12   45 1
    31   13   46 1
    32   13   47 1
    33   14   15 1
    34   14   48 1
    35   15   23 1
    36   15   16 2
    37   16   17 1
    38   17   22 ar
    39   17   18 ar
    40   18   19 ar
    41   18   49 1
    42   19   20 ar
    43   19   50 1
    44   20   21 ar
    45   20   24 1
    46   21   22 ar
    47   21   51 1
    48   22   23 1
    49   24   25 1
    50   24   52 1
    51   25   26 2
    52   25   27 1
    53   26   53 1
    54   26   58 1
    55   27   31 1
    56   27   28 2
    57   28   29 1
    58   28   54 1
    59   29   30 2
    60   29   55 1
    61   30   31 1
    62   30   56 1
@<TRIPOS>MOLECULE
CHEMBL233857__2
   57    61     0     0     0
SMALL
USER_CHARGES

@<TRIPOS>ATOM
      1 C1         -1.9921   -1.3064    4.2788 C.ar      1 <0>        -0.0836
      2 C2         -0.9538   -0.7266    3.5741 C.ar      1 <0>        -0.1134
      3 C3          0.2391   -1.4070    3.4161 C.ar      1 <0>        -0.0982
      4 C4          0.3939   -2.6670    3.9633 C.ar      1 <0>        -0.1626
      5 C5         -0.6442   -3.2464    4.6688 C.ar      1 <0>        -0.0936
      6 C6         -1.8375   -2.5666    4.8255 C.ar      1 <0>        -0.1128
      7 C7          1.6940   -3.4091    3.7903 C.3       1 <0>         0.0445
      8 N1          2.5955   -3.0836    4.9035 N.4       1 <0>        -0.3835
      9 C8          2.9422   -1.6583    4.8497 C.3       1 <0>        -0.0059
     10 C9          3.8156   -1.2962    6.0528 C.3       1 <0>        -0.1556
     11 C10         5.0957   -2.1361    6.0186 C.3       1 <0>         0.1527
     12 C11         4.7201   -3.6206    6.0000 C.3       1 <0>        -0.1629
     13 C12         3.8131   -3.8966    4.7988 C.3       1 <0>        -0.0020
     14 N2          5.9015   -1.8495    7.2080 N.pl3     1 <0>        -0.6741
     15 C13         7.2675   -2.0499    7.1812 C.2       1 <0>         0.3921
     16 N3          8.0172   -2.4806    6.1931 N.2       1 <0>        -0.5664
     17 C14         9.3566   -2.6294    6.3094 C.ar      1 <0>         0.0962
     18 C15        10.2714   -3.0806    5.3302 C.ar      1 <0>        -0.0473
     19 C16        11.6090   -3.1758    5.6097 C.ar      1 <0>        -0.1218
     20 C17        12.1154   -2.8335    6.8616 C.ar      1 <0>         0.1725
     21 C18        11.2429   -2.3866    7.8455 C.ar      1 <0>        -0.0987
     22 C19         9.9026   -2.2905    7.5679 C.ar      1 <0>        -0.1273
     23 S1          8.4653   -1.7815    8.4801 S.3       1 <0>         0.0113
     24 N4         13.4866   -2.9392    7.1248 N.pl3     1 <0>        -0.6985
     25 C20        14.1216   -1.9718    7.8781 C.2       1 <0>         0.4976
     26 N5         13.4724   -0.8984    8.2447 N.2       1 <0>        -0.7294
     27 C21        15.5289   -2.1492    8.2679 C.2       1 <0>        -0.1869
     28 C22        16.3385   -1.3133    9.0159 C.2       1 <0>        -0.0694
     29 C23        17.6277   -1.7526    9.2185 C.2       1 <0>        -0.1807
     30 C24        18.0090   -2.9388    8.6887 C.2       1 <0>        -0.2203
     31 S2         16.6330   -3.5012    7.9060 S.3       1 <0>         0.1979
     32 H1         -2.9225   -0.7730    4.4060 H         1 <0>         0.1360
     33 H2         -1.0747    0.2578    3.1466 H         1 <0>         0.1364
     34 H3          1.0501   -0.9543    2.8649 H         1 <0>         0.1314
     35 H4         -0.5234   -4.2310    5.0959 H         1 <0>         0.1312
     36 H5         -2.6487   -3.0195    5.3763 H         1 <0>         0.1362
     37 H6          1.5014   -4.4820    3.7804 H         1 <0>         0.1381
     38 H7          2.1580   -3.1146    2.8489 H         1 <0>         0.1366
     39 H8          3.4886   -1.4522    3.9293 H         1 <0>         0.1333
     40 H9          2.0300   -1.0620    4.8708 H         1 <0>         0.1380
     41 H10         4.0734   -0.2379    6.0100 H         1 <0>         0.1213
     42 H11         3.2699   -1.5016    6.9737 H         1 <0>         0.0956
     43 H12         5.6670   -1.8934    5.1226 H         1 <0>         0.1086
     44 H13         5.6244   -4.2238    5.9195 H         1 <0>         0.1191
     45 H14         4.1932   -3.8743    6.9198 H         1 <0>         0.0916
     46 H15         3.5440   -4.9527    4.7824 H         1 <0>         0.1353
     47 H16         4.3410   -3.6428    3.8796 H         1 <0>         0.1334
     48 H17         5.4756   -1.5190    8.0143 H         1 <0>         0.4251
     49 H18         9.9109   -3.3542    4.3496 H         1 <0>         0.1381
     50 H19        12.2855   -3.5239    4.8432 H         1 <0>         0.1415
     51 H20        11.6167   -2.1169    8.8222 H         1 <0>         0.1407
     52 H21        13.9904   -3.6920    6.7779 H         1 <0>         0.4104
     53 H22        15.9820   -0.3753    9.4154 H         1 <0>         0.1526
     54 H23        18.3248   -1.1592    9.7916 H         1 <0>         0.1407
     55 H24        18.9752   -3.4164    8.7576 H         1 <0>         0.1910
     56 H25         2.1336   -3.2826    5.7782 H         1 <0>         0.4224
     57 H26        12.5765   -0.7355    7.9103 H         1 <0>         0.3452
@<TRIPOS>BOND
     1    1    6 ar
     2    1    2 ar
     3    1   32 1
     4    2    3 ar
     5    2   33 1
     6    3    4 ar
     7    3   34 1
     8    4    5 ar
     9    4    7 1
    10    5    6 ar
    11    5   35 1
    12    6   36 1
    13    7    8 1
    14    7   37 1
    15    7   38 1
    16    8   13 1
    17    8    9 1
    18    8   56 1
    19    9   10 1
    20    9   39 1
    21    9   40 1
    22   10   11 1
    23   10   41 1
    24   10   42 1
    25   11   12 1
    26   11   14 1
    27   11   43 1
    28   12   13 1
    29   12   44 1
    30   12   45 1
    31   13   46 1
    32   13   47 1
    33   14   15 1
    34   14   48 1
    35   15   23 1
    36   15   16 2
    37   16   17 1
    38   17   22 ar
    39   17   18 ar
    40   18   19 ar
    41   18   49 1
    42   19   20 ar
    43   19   50 1
    44   20   21 ar
    45   20   24 1
    46   21   22 ar
    47   21   51 1
    48   22   23 1
    49   24   25 1
    50   24   52 1
    51   25   26 2
    52   25   27 1
    53   26   57 1
    54   27   31 1
    55   27   28 2
    56   28   29 1
    57   28   53 1
    58   29   30 2
    59   29   54 1
    60   30   31 1
    61   30   55 1
@<TRIPOS>MOLECULE
CHEMBL233857__3
   57    61     0     0     0
SMALL
USER_CHARGES

@<TRIPOS>ATOM
      1 C1         -0.9345   -0.8626    0.9378 C.ar      1 <0>        -0.0839
      2 C2          0.1133    0.0375    0.8843 C.ar      1 <0>        -0.1134
      3 C3          1.4132   -0.4205    0.7787 C.ar      1 <0>        -0.0981
      4 C4          1.6655   -1.7787    0.7270 C.ar      1 <0>        -0.1622
      5 C5          0.6177   -2.6788    0.7815 C.ar      1 <0>        -0.0936
      6 C6         -0.6823   -2.2207    0.8857 C.ar      1 <0>        -0.1129
      7 C7          3.0826   -2.2780    0.6109 C.3       1 <0>         0.0445
      8 N1          3.6443   -2.4740    1.9540 N.4       1 <0>        -0.3834
      9 C8          3.7350   -1.1787    2.6386 C.3       1 <0>        -0.0058
     10 C9          4.2435   -1.3868    4.0667 C.3       1 <0>        -0.1554
     11 C10         5.6282   -2.0391    4.0197 C.3       1 <0>         0.1537
     12 C11         5.5363   -3.3535    3.2391 C.3       1 <0>        -0.1627
     13 C12         4.9799   -3.0725    1.8416 C.3       1 <0>        -0.0020
     14 N2          6.0884   -2.3107    5.3838 N.pl3     1 <0>        -0.6765
     15 C13         7.4401   -2.4006    5.6514 C.2       1 <0>         0.3866
     16 N3          8.4532   -2.2680    4.8269 N.2       1 <0>        -0.5654
     17 C14         9.7388   -2.3821    5.2319 C.ar      1 <0>         0.0889
     18 C15        10.9119   -2.2630    4.4517 C.ar      1 <0>        -0.0552
     19 C16        12.1503   -2.4079    5.0191 C.ar      1 <0>        -0.1278
     20 C17        12.2996   -2.6763    6.3779 C.ar      1 <0>         0.1848
     21 C18        11.1667   -2.7993    7.1720 C.ar      1 <0>        -0.0522
     22 C19         9.9252   -2.6546    6.6059 C.ar      1 <0>        -0.1300
     23 S1          8.2553   -2.7192    7.2095 S.3       1 <0>        -0.0002
     24 N4         13.5756   -2.8209    6.9360 N.pl3     1 <0>        -0.6529
     25 C20        13.8191   -2.3865    8.2239 C.2       1 <0>         0.5012
     26 N5         12.8928   -1.7408    8.8819 N.2       1 <0>        -0.7333
     27 C21        15.1212   -2.6506    8.8553 C.2       1 <0>        -0.2363
     28 C22        15.5609   -2.3105   10.1222 C.2       1 <0>        -0.0943
     29 C23        16.8450   -2.6975   10.4340 C.2       1 <0>        -0.1771
     30 C24        17.5733   -3.3659    9.5088 C.2       1 <0>        -0.2210
     31 S2         16.5410   -3.4989    8.1902 S.3       1 <0>         0.2069
     32 H1         -1.9498   -0.5048    1.0249 H         1 <0>         0.1359
     33 H2         -0.0838    1.0986    0.9247 H         1 <0>         0.1362
     34 H3          2.2318    0.2827    0.7361 H         1 <0>         0.1314
     35 H4          0.8148   -3.7399    0.7408 H         1 <0>         0.1312
     36 H5         -1.5009   -2.9239    0.9278 H         1 <0>         0.1361
     37 H6          3.0910   -3.2253    0.0718 H         1 <0>         0.1379
     38 H7          3.6823   -1.5465    0.0694 H         1 <0>         0.1365
     39 H8          4.4250   -0.5304    2.0985 H         1 <0>         0.1331
     40 H9          2.7494   -0.7143    2.6684 H         1 <0>         0.1373
     41 H10         4.3118   -0.4238    4.5727 H         1 <0>         0.1209
     42 H11         3.5541   -2.0349    4.6078 H         1 <0>         0.0951
     43 H12         6.3302   -1.3689    3.5236 H         1 <0>         0.1078
     44 H13         6.5287   -3.7962    3.1535 H         1 <0>         0.1193
     45 H14         4.8737   -4.0423    3.7630 H         1 <0>         0.0909
     46 H15         4.9133   -4.0061    1.2831 H         1 <0>         0.1348
     47 H16         5.6433   -2.3838    1.3186 H         1 <0>         0.1332
     48 H17         5.4436   -2.4274    6.0990 H         1 <0>         0.4239
     49 H18        10.8306   -2.0556    3.3950 H         1 <0>         0.1337
     50 H19        13.0298   -2.3122    4.3997 H         1 <0>         0.1368
     51 H20        11.2623   -3.0076    8.2274 H         1 <0>         0.1475
     52 H21        14.2885   -3.2262    6.4179 H         1 <0>         0.4188
     53 H22        13.0638   -1.4357    9.7866 H         1 <0>         0.3532
     54 H23        14.9366   -1.7751   10.8221 H         1 <0>         0.1433
     55 H24        17.2654   -2.4708   11.4027 H         1 <0>         0.1406
     56 H25        18.5847   -3.7338    9.5995 H         1 <0>         0.1912
     57 H26         3.0442   -3.0898    2.4819 H         1 <0>         0.4223
@<TRIPOS>BOND
     1    1    6 ar
     2    1    2 ar
     3    1   32 1
     4    2    3 ar
     5    2   33 1
     6    3    4 ar
     7    3   34 1
     8    4    5 ar
     9    4    7 1
    10    5    6 ar
    11    5   35 1
    12    6   36 1
    13    7    8 1
    14    7   37 1
    15    7   38 1
    16    8   13 1
    17    8    9 1
    18    8   57 1
    19    9   10 1
    20    9   39 1
    21    9   40 1
    22   10   11 1
    23   10   41 1
    24   10   42 1
    25   11   12 1
    26   11   14 1
    27   11   43 1
    28   12   13 1
    29   12   44 1
    30   12   45 1
    31   13   46 1
    32   13   47 1
    33   14   15 1
    34   14   48 1
    35   15   23 1
    36   15   16 2
    37   16   17 1
    38   17   22 ar
    39   17   18 ar
    40   18   19 ar
    41   18   49 1
    42   19   20 ar
    43   19   50 1
    44   20   21 ar
    45   20   24 1
    46   21   22 ar
    47   21   51 1
    48   22   23 1
    49   24   25 1
    50   24   52 1
    51   25   26 2
    52   25   27 1
    53   26   53 1
    54   27   31 1
    55   27   28 2
    56   28   29 1
    57   28   54 1
    58   29   30 2
    59   29   55 1
    60   30   31 1
    61   30   56 1
@<TRIPOS>MOLECULE
CHEMBL233653
   57    61     0     0     0
SMALL
USER_CHARGES

@<TRIPOS>ATOM
      1 C1          0.6063   -0.0322    2.1717 C.2       1 <0>        -0.1834
      2 C2          1.9198    0.3416    2.3444 C.2       1 <0>        -0.0974
      3 C3          2.6928    0.3709    1.1950 C.2       1 <0>        -0.2039
      4 S1          1.5182   -0.1294   -0.0491 S.3       1 <0>         0.2884
      5 C4          0.1673   -0.3380    0.9275 C.2       1 <0>        -0.2394
      6 C5          4.1092    0.7229    1.0416 C.2       1 <0>         0.5270
      7 N1          4.8531    1.0888    2.1457 N.pl3     1 <0>        -0.8645
      8 N2          4.6701    0.6899   -0.1479 N.2       1 <0>        -0.5698
      9 C6          6.0155    0.9001   -0.2757 C.ar      1 <0>         0.1530
     10 C7          6.5004    1.9254   -1.0983 C.ar      1 <0>        -0.1088
     11 C8          7.8318    2.1506   -1.2395 C.ar      1 <0>        -0.0525
     12 C9          8.7837    1.3555   -0.5581 C.ar      1 <0>         0.0843
     13 C10         8.2706    0.3273    0.2666 C.ar      1 <0>        -0.1244
     14 C11         6.9280    0.0989    0.4170 C.ar      1 <0>        -0.1211
     15 S2          9.7499   -0.4099    0.9185 S.3       1 <0>        -0.0087
     16 C12        10.9182    0.6552    0.0851 C.2       1 <0>         0.3864
     17 N3         10.1313    1.4560   -0.5961 N.2       1 <0>        -0.5624
     18 N4         12.2975    0.6405    0.1435 N.pl3     1 <0>        -0.6764
     19 C13        13.0737    1.6143   -0.6282 C.3       1 <0>         0.1534
     20 C14        13.2843    1.0891   -2.0513 C.3       1 <0>        -0.1631
     21 C15        14.1622    2.0731   -2.8275 C.3       1 <0>        -0.0005
     22 N5         15.4610    2.2093   -2.1575 N.4       1 <0>        -0.3854
     23 C16        15.2732    2.7798   -0.8182 C.3       1 <0>        -0.0053
     24 C17        14.4380    1.8231    0.0353 C.3       1 <0>        -0.1566
     25 C18        16.3276    3.0938   -2.9479 C.3       1 <0>        -0.0022
     26 C19        17.7213    3.1380   -2.3181 C.3       1 <0>        -0.0492
     27 C20        18.6103    4.0454   -3.1288 C.2       1 <0>        -0.0260
     28 C21        19.3055    5.0987   -2.6587 C.2       1 <0>        -0.0286
     29 N6         19.9747    5.6387   -3.7237 N.pl3     1 <0>        -0.5632
     30 C22        19.6649    4.8962   -4.8083 C.2       1 <0>         0.2052
     31 N7         18.8525    3.9421   -4.4440 N.2       1 <0>        -0.4930
     32 H1         20.5618    6.4106   -3.7032 H         1 <0>         0.4299
     33 H2         -0.0636   -0.0852    3.0171 H         1 <0>         0.1381
     34 H3          2.3219    0.5961    3.3139 H         1 <0>         0.1423
     35 H4         -0.8246   -0.6455    0.6310 H         1 <0>         0.1909
     36 H5          4.4334    1.1379    3.0188 H         1 <0>         0.4040
     37 H6          5.7996    2.5501   -1.6322 H         1 <0>         0.1380
     38 H7          8.1700    2.9495   -1.8827 H         1 <0>         0.1322
     39 H8          6.5783   -0.6946    1.0608 H         1 <0>         0.1307
     40 H9         12.7527   -0.0145    0.6955 H         1 <0>         0.4238
     41 H10        12.5369    2.5622   -0.6640 H         1 <0>         0.1072
     42 H11        13.7750    0.1166   -2.0115 H         1 <0>         0.0916
     43 H12        12.3197    0.9907   -2.5493 H         1 <0>         0.1184
     44 H13        14.3139    1.7023   -3.8413 H         1 <0>         0.1354
     45 H14        13.6705    3.0450   -2.8669 H         1 <0>         0.1318
     46 H15        16.2452    2.9308   -0.3486 H         1 <0>         0.1384
     47 H16        14.7578    3.7368   -0.9005 H         1 <0>         0.1334
     48 H17        14.2982    2.2493    1.0288 H         1 <0>         0.1207
     49 H18        14.9527    0.8658    0.1184 H         1 <0>         0.0964
     50 H19        16.4014    2.7144   -3.9670 H         1 <0>         0.1391
     51 H20        15.9041    4.0980   -2.9638 H         1 <0>         0.1291
     52 H21        17.6476    3.5175   -1.2989 H         1 <0>         0.0953
     53 H22        18.1449    2.1338   -2.3022 H         1 <0>         0.0956
     54 H23        19.3301    5.4499   -1.6377 H         1 <0>         0.1802
     55 H24        20.0320    5.0620   -5.8104 H         1 <0>         0.2151
     56 H25        15.8939    1.3014   -2.0776 H         1 <0>         0.4231
     57 H26         5.7956    1.2968    2.0483 H         1 <0>         0.4077
@<TRIPOS>BOND
     1    1    5 2
     2    1    2 1
     3    1   33 1
     4    2    3 2
     5    2   34 1
     6    3    4 1
     7    3    6 1
     8    4    5 1
     9    5   35 1
    10    6    7 1
    11    6    8 2
    12    7   36 1
    13    7   57 1
    14    8    9 1
    15    9   14 ar
    16    9   10 ar
    17   10   11 ar
    18   10   37 1
    19   11   12 ar
    20   11   38 1
    21   12   17 1
    22   12   13 ar
    23   13   14 ar
    24   13   15 1
    25   14   39 1
    26   15   16 1
    27   16   17 2
    28   16   18 1
    29   18   19 1
    30   18   40 1
    31   19   24 1
    32   19   20 1
    33   19   41 1
    34   20   21 1
    35   20   42 1
    36   20   43 1
    37   21   22 1
    38   21   44 1
    39   21   45 1
    40   22   23 1
    41   22   25 1
    42   22   56 1
    43   23   24 1
    44   23   46 1
    45   23   47 1
    46   24   48 1
    47   24   49 1
    48   25   26 1
    49   25   50 1
    50   25   51 1
    51   26   52 1
    52   26   53 1
    53   26   27 1
    54   27   31 1
    55   27   28 2
    56   28   54 1
    57   28   29 1
    58   29   30 1
    59   29   32 1
    60   30   55 1
    61   30   31 2
@<TRIPOS>MOLECULE
CHEMBL233653__1
   57    61     0     0     0
SMALL
USER_CHARGES

@<TRIPOS>ATOM
      1 C1          0.6063   -0.0322    2.1717 C.2       1 <0>        -0.1835
      2 C2          1.9198    0.3416    2.3444 C.2       1 <0>        -0.0970
      3 C3          2.6928    0.3709    1.1950 C.2       1 <0>        -0.2047
      4 S1          1.5182   -0.1294   -0.0491 S.3       1 <0>         0.2887
      5 C4          0.1673   -0.3380    0.9275 C.2       1 <0>        -0.2389
      6 C5          4.1092    0.7229    1.0416 C.2       1 <0>         0.5279
      7 N1          4.8531    1.0888    2.1457 N.pl3     1 <0>        -0.8645
      8 N2          4.6701    0.6899   -0.1479 N.2       1 <0>        -0.5703
      9 C6          6.0155    0.9001   -0.2757 C.ar      1 <0>         0.1544
     10 C7          6.5004    1.9254   -1.0983 C.ar      1 <0>        -0.1090
     11 C8          7.8318    2.1506   -1.2395 C.ar      1 <0>        -0.0520
     12 C9          8.7837    1.3555   -0.5581 C.ar      1 <0>         0.0829
     13 C10         8.2706    0.3273    0.2666 C.ar      1 <0>        -0.1237
     14 C11         6.9280    0.0989    0.4170 C.ar      1 <0>        -0.1217
     15 S2          9.7499   -0.4099    0.9185 S.3       1 <0>        -0.0070
     16 C12        10.9182    0.6552    0.0851 C.2       1 <0>         0.3845
     17 N3         10.1313    1.4560   -0.5961 N.2       1 <0>        -0.5620
     18 N4         12.2975    0.6405    0.1435 N.pl3     1 <0>        -0.6768
     19 C13        13.0737    1.6143   -0.6282 C.3       1 <0>         0.1537
     20 C14        13.2843    1.0891   -2.0513 C.3       1 <0>        -0.1634
     21 C15        14.1622    2.0731   -2.8275 C.3       1 <0>        -0.0011
     22 N5         15.4610    2.2093   -2.1575 N.4       1 <0>        -0.3849
     23 C16        15.2732    2.7798   -0.8182 C.3       1 <0>        -0.0057
     24 C17        14.4380    1.8231    0.0353 C.3       1 <0>        -0.1566
     25 C18        16.3276    3.0938   -2.9479 C.3       1 <0>        -0.0078
     26 C19        17.7213    3.1380   -2.3181 C.3       1 <0>        -0.0599
     27 C20        18.6103    4.0454   -3.1288 C.2       1 <0>        -0.0625
     28 C21        19.3089    3.7101   -4.2303 C.2       1 <0>         0.0089
     29 N6         19.9701    4.7991   -4.6498 N.2       1 <0>        -0.4895
     30 C22        19.7078    5.7965   -3.8502 C.2       1 <0>         0.2154
     31 N7         18.8584    5.3704   -2.8907 N.pl3     1 <0>        -0.5663
     32 H1         18.4938    5.9031   -2.1667 H         1 <0>         0.4219
     33 H2         -0.0636   -0.0852    3.0171 H         1 <0>         0.1383
     34 H3          2.3219    0.5961    3.3139 H         1 <0>         0.1423
     35 H4         -0.8246   -0.6455    0.6310 H         1 <0>         0.1911
     36 H5          4.4334    1.1379    3.0188 H         1 <0>         0.4041
     37 H6          5.7996    2.5501   -1.6322 H         1 <0>         0.1383
     38 H7          8.1700    2.9495   -1.8827 H         1 <0>         0.1320
     39 H8          6.5783   -0.6946    1.0608 H         1 <0>         0.1310
     40 H9         12.7527   -0.0145    0.6955 H         1 <0>         0.4240
     41 H10        12.5369    2.5622   -0.6640 H         1 <0>         0.1071
     42 H11        13.7750    0.1166   -2.0115 H         1 <0>         0.0925
     43 H12        12.3197    0.9907   -2.5493 H         1 <0>         0.1196
     44 H13        14.3139    1.7023   -3.8413 H         1 <0>         0.1365
     45 H14        13.6705    3.0450   -2.8669 H         1 <0>         0.1323
     46 H15        16.2452    2.9308   -0.3486 H         1 <0>         0.1372
     47 H16        14.7578    3.7368   -0.9005 H         1 <0>         0.1332
     48 H17        14.2982    2.2493    1.0288 H         1 <0>         0.1214
     49 H18        14.9527    0.8658    0.1184 H         1 <0>         0.0973
     50 H19        16.4014    2.7144   -3.9670 H         1 <0>         0.1390
     51 H20        15.9041    4.0980   -2.9638 H         1 <0>         0.1291
     52 H21        17.6476    3.5175   -1.2989 H         1 <0>         0.0926
     53 H22        18.1449    2.1338   -2.3022 H         1 <0>         0.1099
     54 H23        19.3325    2.7352   -4.6945 H         1 <0>         0.1733
     55 H24        20.1016    6.7978   -3.9427 H         1 <0>         0.2166
     56 H25        15.8939    1.3014   -2.0776 H         1 <0>         0.4246
     57 H26         5.7956    1.2968    2.0483 H         1 <0>         0.4076
@<TRIPOS>BOND
     1    1    5 2
     2    1    2 1
     3    1   33 1
     4    2    3 2
     5    2   34 1
     6    3    4 1
     7    3    6 1
     8    4    5 1
     9    5   35 1
    10    6    7 1
    11    6    8 2
    12    7   36 1
    13    7   57 1
    14    8    9 1
    15    9   14 ar
    16    9   10 ar
    17   10   11 ar
    18   10   37 1
    19   11   12 ar
    20   11   38 1
    21   12   17 1
    22   12   13 ar
    23   13   14 ar
    24   13   15 1
    25   14   39 1
    26   15   16 1
    27   16   17 2
    28   16   18 1
    29   18   19 1
    30   18   40 1
    31   19   24 1
    32   19   20 1
    33   19   41 1
    34   20   21 1
    35   20   42 1
    36   20   43 1
    37   21   22 1
    38   21   44 1
    39   21   45 1
    40   22   23 1
    41   22   25 1
    42   22   56 1
    43   23   24 1
    44   23   46 1
    45   23   47 1
    46   24   48 1
    47   24   49 1
    48   25   26 1
    49   25   50 1
    50   25   51 1
    51   26   27 1
    52   26   52 1
    53   26   53 1
    54   27   31 1
    55   27   28 2
    56   28   29 1
    57   28   54 1
    58   29   30 2
    59   30   31 1
    60   30   55 1
    61   31   32 1
@<TRIPOS>MOLECULE
CHEMBL233653__2
   57    61     0     0     0
SMALL
USER_CHARGES

@<TRIPOS>ATOM
      1 C1          1.1230   -2.2350   -1.1544 C.2       1 <0>        -0.1810
      2 C2          2.4107   -1.8959   -1.5049 C.2       1 <0>        -0.0690
      3 C3          2.9935   -0.8910   -0.7537 C.2       1 <0>        -0.1879
      4 S1          1.6911   -0.4903    0.3956 S.3       1 <0>         0.1988
      5 C4          0.5275   -1.5830   -0.1280 C.2       1 <0>        -0.2199
      6 C5          4.3380   -0.3060   -0.8721 C.2       1 <0>         0.4980
      7 N1          5.1608   -0.7396   -1.7903 N.2       1 <0>        -0.7302
      8 N2          4.7307    0.7013   -0.0132 N.pl3     1 <0>        -0.6975
      9 C6          6.0489    1.1726   -0.0431 C.ar      1 <0>         0.1745
     10 C7          6.3172    2.5287    0.1292 C.ar      1 <0>        -0.1231
     11 C8          7.5986    3.0120    0.1032 C.ar      1 <0>        -0.0459
     12 C9          8.6965    2.1444   -0.1001 C.ar      1 <0>         0.0944
     13 C10         8.3900    0.7755   -0.2708 C.ar      1 <0>        -0.1260
     14 C11         7.1059    0.2931   -0.2391 C.ar      1 <0>        -0.1016
     15 S2          9.9977    0.0517   -0.4907 S.3       1 <0>         0.0121
     16 C12        10.9454    1.5600   -0.3472 C.2       1 <0>         0.3905
     17 N3         10.0105    2.4609   -0.1516 N.2       1 <0>        -0.5656
     18 N4         12.3132    1.7338   -0.4228 N.pl3     1 <0>        -0.6747
     19 C13        12.8907    3.0721   -0.2762 C.3       1 <0>         0.1524
     20 C14        12.8825    3.7847   -1.6316 C.3       1 <0>        -0.1631
     21 C15        13.5587    5.1498   -1.4882 C.3       1 <0>        -0.0012
     22 N5         14.9438    4.9688   -1.0373 N.4       1 <0>        -0.3852
     23 C16        14.9575    4.3510    0.2941 C.3       1 <0>        -0.0063
     24 C17        14.3351    2.9551    0.2192 C.3       1 <0>        -0.1569
     25 C18        15.6120    6.2756   -0.9760 C.3       1 <0>        -0.0077
     26 C19        17.0885    6.0776   -0.6272 C.3       1 <0>        -0.0600
     27 C20        17.7740    7.4182   -0.5643 C.2       1 <0>        -0.0626
     28 C21        17.8203    8.2471    0.4961 C.2       1 <0>         0.0087
     29 N6         18.5253    9.3325    0.1437 N.2       1 <0>        -0.4895
     30 C22        18.9175    9.2076   -1.0946 C.2       1 <0>         0.2155
     31 N7         18.4742    8.0247   -1.5720 N.pl3     1 <0>        -0.5661
     32 H1         18.6228    7.6715   -2.4631 H         1 <0>         0.4224
     33 H2          0.5939   -3.0070   -1.6935 H         1 <0>         0.1408
     34 H3          2.9327   -2.3838   -2.3147 H         1 <0>         0.1525
     35 H4         -0.4678   -1.7312    0.2641 H         1 <0>         0.1911
     36 H5          4.0934    1.0824    0.6109 H         1 <0>         0.4107
     37 H6          5.4972    3.2138    0.2862 H         1 <0>         0.1417
     38 H7          7.7726    4.0692    0.2393 H         1 <0>         0.1382
     39 H8          6.9180   -0.7624   -0.3697 H         1 <0>         0.1416
     40 H9         12.8916    0.9697   -0.5729 H         1 <0>         0.4251
     41 H10        12.3044    3.6455    0.4419 H         1 <0>         0.1089
     42 H11        13.4255    3.1845   -2.3617 H         1 <0>         0.0917
     43 H12        11.8537    3.9214   -1.9648 H         1 <0>         0.1194
     44 H13        13.5544    5.6600   -2.4515 H         1 <0>         0.1342
     45 H14        13.0149    5.7493   -0.7582 H         1 <0>         0.1342
     46 H15        15.9858    4.2714    0.6466 H         1 <0>         0.1397
     47 H16        14.3838    4.9675    0.9861 H         1 <0>         0.1365
     48 H17        14.3445    2.4988    1.2091 H         1 <0>         0.1229
     49 H18        14.9082    2.3377   -0.4724 H         1 <0>         0.0965
     50 H19        15.5305    6.7711   -1.9434 H         1 <0>         0.1304
     51 H20        15.1374    6.8908   -0.2115 H         1 <0>         0.1377
     52 H21        17.1700    5.5821    0.3403 H         1 <0>         0.1094
     53 H22        17.5631    5.4624   -1.3916 H         1 <0>         0.0930
     54 H23        17.3690    8.0692    1.4609 H         1 <0>         0.1730
     55 H24        19.5027    9.9291   -1.6454 H         1 <0>         0.2167
     56 H25        15.4333    4.3733   -1.6884 H         1 <0>         0.4223
     57 H26         6.0105   -0.2931   -1.9301 H         1 <0>         0.3453
@<TRIPOS>BOND
     1    1    5 2
     2    1    2 1
     3    1   33 1
     4    2    3 2
     5    2   34 1
     6    3    4 1
     7    3    6 1
     8    4    5 1
     9    5   35 1
    10    6    7 2
    11    6    8 1
    12    7   57 1
    13    8    9 1
    14    8   36 1
    15    9   14 ar
    16    9   10 ar
    17   10   11 ar
    18   10   37 1
    19   11   12 ar
    20   11   38 1
    21   12   17 1
    22   12   13 ar
    23   13   14 ar
    24   13   15 1
    25   14   39 1
    26   15   16 1
    27   16   17 2
    28   16   18 1
    29   18   19 1
    30   18   40 1
    31   19   24 1
    32   19   20 1
    33   19   41 1
    34   20   21 1
    35   20   42 1
    36   20   43 1
    37   21   22 1
    38   21   44 1
    39   21   45 1
    40   22   23 1
    41   22   25 1
    42   22   56 1
    43   23   24 1
    44   23   46 1
    45   23   47 1
    46   24   48 1
    47   24   49 1
    48   25   26 1
    49   25   50 1
    50   25   51 1
    51   26   52 1
    52   26   53 1
    53   26   27 1
    54   27   28 2
    55   27   31 1
    56   28   29 1
    57   28   54 1
    58   29   30 2
    59   30   55 1
    60   30   31 1
    61   31   32 1
@<TRIPOS>MOLECULE
CHEMBL233653__3
   57    61     0     0     0
SMALL
USER_CHARGES

@<TRIPOS>ATOM
      1 C1          1.1230   -2.2350   -1.1544 C.2       1 <0>        -0.1808
      2 C2          2.4107   -1.8959   -1.5049 C.2       1 <0>        -0.0693
      3 C3          2.9935   -0.8910   -0.7537 C.2       1 <0>        -0.1872
      4 S1          1.6911   -0.4903    0.3956 S.3       1 <0>         0.1984
      5 C4          0.5275   -1.5830   -0.1280 C.2       1 <0>        -0.2203
      6 C5          4.3380   -0.3060   -0.8721 C.2       1 <0>         0.4977
      7 N1          5.1608   -0.7396   -1.7903 N.2       1 <0>        -0.7301
      8 N2          4.7307    0.7013   -0.0132 N.pl3     1 <0>        -0.6975
      9 C6          6.0489    1.1726   -0.0431 C.ar      1 <0>         0.1735
     10 C7          6.3172    2.5287    0.1292 C.ar      1 <0>        -0.1230
     11 C8          7.5986    3.0120    0.1032 C.ar      1 <0>        -0.0465
     12 C9          8.6965    2.1444   -0.1001 C.ar      1 <0>         0.0955
     13 C10         8.3900    0.7755   -0.2708 C.ar      1 <0>        -0.1266
     14 C11         7.1059    0.2931   -0.2391 C.ar      1 <0>        -0.1013
     15 S2          9.9977    0.0517   -0.4907 S.3       1 <0>         0.0111
     16 C12        10.9454    1.5600   -0.3472 C.2       1 <0>         0.3921
     17 N3         10.0105    2.4609   -0.1516 N.2       1 <0>        -0.5663
     18 N4         12.3132    1.7338   -0.4228 N.pl3     1 <0>        -0.6742
     19 C13        12.8907    3.0721   -0.2762 C.3       1 <0>         0.1523
     20 C14        12.8825    3.7847   -1.6316 C.3       1 <0>        -0.1631
     21 C15        13.5587    5.1498   -1.4882 C.3       1 <0>        -0.0004
     22 N5         14.9438    4.9688   -1.0373 N.4       1 <0>        -0.3856
     23 C16        14.9575    4.3510    0.2941 C.3       1 <0>        -0.0053
     24 C17        14.3351    2.9551    0.2192 C.3       1 <0>        -0.1568
     25 C18        15.6120    6.2756   -0.9760 C.3       1 <0>        -0.0022
     26 C19        17.0885    6.0776   -0.6272 C.3       1 <0>        -0.0492
     27 C20        17.7740    7.4182   -0.5643 C.2       1 <0>        -0.0261
     28 C21        18.4806    7.8976    0.4771 C.2       1 <0>        -0.0285
     29 N6         18.9263    9.1401    0.1148 N.pl3     1 <0>        -0.5632
     30 C22        18.4764    9.3768   -1.1363 C.2       1 <0>         0.2053
     31 N7         17.7922    8.3406   -1.5378 N.2       1 <0>        -0.4931
     32 H1         19.4649    9.7387    0.6556 H         1 <0>         0.4299
     33 H2          0.5939   -3.0070   -1.6935 H         1 <0>         0.1407
     34 H3          2.9327   -2.3838   -2.3147 H         1 <0>         0.1526
     35 H4         -0.4678   -1.7312    0.2641 H         1 <0>         0.1910
     36 H5          4.0934    1.0824    0.6109 H         1 <0>         0.4105
     37 H6          5.4972    3.2138    0.2862 H         1 <0>         0.1414
     38 H7          7.7726    4.0692    0.2393 H         1 <0>         0.1381
     39 H8          6.9180   -0.7624   -0.3697 H         1 <0>         0.1414
     40 H9         12.8916    0.9697   -0.5729 H         1 <0>         0.4250
     41 H10        12.3044    3.6455    0.4419 H         1 <0>         0.1081
     42 H11        13.4255    3.1845   -2.3617 H         1 <0>         0.0921
     43 H12        11.8537    3.9214   -1.9648 H         1 <0>         0.1184
     44 H13        13.5544    5.6600   -2.4515 H         1 <0>         0.1356
     45 H14        13.0149    5.7493   -0.7582 H         1 <0>         0.1319
     46 H15        15.9858    4.2714    0.6466 H         1 <0>         0.1387
     47 H16        14.3838    4.9675    0.9861 H         1 <0>         0.1336
     48 H17        14.3445    2.4988    1.2091 H         1 <0>         0.1212
     49 H18        14.9082    2.3377   -0.4724 H         1 <0>         0.0968
     50 H19        15.5305    6.7711   -1.9434 H         1 <0>         0.1392
     51 H20        15.1374    6.8908   -0.2115 H         1 <0>         0.1292
     52 H21        17.1700    5.5821    0.3403 H         1 <0>         0.0954
     53 H22        17.5631    5.4624   -1.3916 H         1 <0>         0.0957
     54 H23        18.6606    7.3980    1.4175 H         1 <0>         0.1803
     55 H24        18.6564   10.2734   -1.7108 H         1 <0>         0.2151
     56 H25        15.4333    4.3733   -1.6884 H         1 <0>         0.4233
     57 H26         6.0105   -0.2931   -1.9301 H         1 <0>         0.3455
@<TRIPOS>BOND
     1    1    5 2
     2    1    2 1
     3    1   33 1
     4    2    3 2
     5    2   34 1
     6    3    4 1
     7    3    6 1
     8    4    5 1
     9    5   35 1
    10    6    7 2
    11    6    8 1
    12    7   57 1
    13    8    9 1
    14    8   36 1
    15    9   14 ar
    16    9   10 ar
    17   10   11 ar
    18   10   37 1
    19   11   12 ar
    20   11   38 1
    21   12   17 1
    22   12   13 ar
    23   13   14 ar
    24   13   15 1
    25   14   39 1
    26   15   16 1
    27   16   17 2
    28   16   18 1
    29   18   19 1
    30   18   40 1
    31   19   24 1
    32   19   20 1
    33   19   41 1
    34   20   21 1
    35   20   42 1
    36   20   43 1
    37   21   22 1
    38   21   44 1
    39   21   45 1
    40   22   23 1
    41   22   25 1
    42   22   56 1
    43   23   24 1
    44   23   46 1
    45   23   47 1
    46   24   48 1
    47   24   49 1
    48   25   26 1
    49   25   50 1
    50   25   51 1
    51   26   52 1
    52   26   53 1
    53   26   27 1
    54   27   31 1
    55   27   28 2
    56   28   54 1
    57   28   29 1
    58   29   30 1
    59   29   32 1
    60   30   55 1
    61   30   31 2
@<TRIPOS>MOLECULE
CHEMBL233653__4
   57    61     0     0     0
SMALL
USER_CHARGES

@<TRIPOS>ATOM
      1 C1          1.1485   -2.4091    0.5061 C.2       1 <0>        -0.1771
      2 C2          2.4586   -2.1732    0.8579 C.2       1 <0>        -0.0941
      3 C3          3.0143   -1.0079    0.3607 C.2       1 <0>        -0.2365
      4 S1          1.6565   -0.3219   -0.5686 S.3       1 <0>         0.2069
      5 C4          0.5071   -1.5127   -0.2803 C.2       1 <0>        -0.2208
      6 C5          4.3717   -0.4738    0.5500 C.2       1 <0>         0.5012
      7 N1          5.2371   -1.1308    1.2763 N.2       1 <0>        -0.7334
      8 N2          4.7317    0.7218   -0.0396 N.pl3     1 <0>        -0.6531
      9 C6          6.0555    1.1712    0.0402 C.ar      1 <0>         0.1853
     10 C7          6.3331    2.5322    0.1464 C.ar      1 <0>        -0.1277
     11 C8          7.6202    2.9943    0.2252 C.ar      1 <0>        -0.0550
     12 C9          8.7144    2.0991    0.2016 C.ar      1 <0>         0.0883
     13 C10         8.3984    0.7261    0.0936 C.ar      1 <0>        -0.1298
     14 C11         7.1080    0.2652    0.0201 C.ar      1 <0>        -0.0522
     15 S2         10.0043   -0.0341    0.0985 S.3       1 <0>         0.0005
     16 C12        10.9638    1.4671    0.2389 C.2       1 <0>         0.3854
     17 N3         10.0331    2.3927    0.2701 N.2       1 <0>        -0.5648
     18 N4         12.3352    1.6158    0.2991 N.pl3     1 <0>        -0.6768
     19 C13        12.9227    2.9529    0.4144 C.3       1 <0>         0.1532
     20 C14        13.0741    3.5677   -0.9799 C.3       1 <0>        -0.1628
     21 C15        13.7606    4.9300   -0.8589 C.3       1 <0>        -0.0013
     22 N5         15.0856    4.7618   -0.2502 N.4       1 <0>        -0.3850
     23 C16        14.9442    4.2397    1.1143 C.3       1 <0>        -0.0063
     24 C17        14.3033    2.8510    1.0693 C.3       1 <0>        -0.1568
     25 C18        15.7715    6.0601   -0.2075 C.3       1 <0>        -0.0077
     26 C19        17.1979    5.8665    0.3110 C.3       1 <0>        -0.0601
     27 C20        17.9016    7.1984    0.3548 C.2       1 <0>        -0.0623
     28 C21        17.8528    8.0997    1.3543 C.2       1 <0>         0.0086
     29 N6         18.6145    9.1473    1.0059 N.2       1 <0>        -0.4896
     30 C22        19.1334    8.9295   -0.1715 C.2       1 <0>         0.2151
     31 N7         18.7180    7.7221   -0.6111 N.pl3     1 <0>        -0.5661
     32 H1         18.9529    7.3046   -1.4546 H         1 <0>         0.4224
     33 H2          0.6411   -3.2988    0.8488 H         1 <0>         0.1407
     34 H3          3.0170   -2.8545    1.4828 H         1 <0>         0.1434
     35 H4         -0.5104   -1.5539   -0.6401 H         1 <0>         0.1912
     36 H5          4.9843   -1.9707    1.6905 H         1 <0>         0.3533
     37 H6          4.0675    1.2504   -0.5090 H         1 <0>         0.4189
     38 H7          5.5160    3.2382    0.1667 H         1 <0>         0.1371
     39 H8          7.8015    4.0559    0.3061 H         1 <0>         0.1338
     40 H9          6.9124   -0.7941   -0.0569 H         1 <0>         0.1476
     41 H10        12.9097    0.8350    0.2651 H         1 <0>         0.4239
     42 H11        12.2758    3.5839    1.0240 H         1 <0>         0.1082
     43 H12        13.6785    2.9097   -1.6042 H         1 <0>         0.0910
     44 H13        12.0897    3.6950   -1.4305 H         1 <0>         0.1195
     45 H14        13.8697    5.3706   -1.8499 H         1 <0>         0.1337
     46 H15        13.1552    5.5872   -0.2347 H         1 <0>         0.1341
     47 H16        15.9272    4.1708    1.5801 H         1 <0>         0.1392
     48 H17        14.3136    4.9117    1.6965 H         1 <0>         0.1364
     49 H18        14.1975    2.4658    2.0835 H         1 <0>         0.1227
     50 H19        14.9332    2.1780    0.4875 H         1 <0>         0.0959
     51 H20        15.8041    6.4870   -1.2099 H         1 <0>         0.1302
     52 H21        15.2317    6.7346    0.4572 H         1 <0>         0.1376
     53 H22        17.1653    5.4397    1.3134 H         1 <0>         0.1094
     54 H23        17.7377    5.1921   -0.3537 H         1 <0>         0.0929
     55 H24        17.2976    7.9969    2.2749 H         1 <0>         0.1730
     56 H25        19.7893    9.6019   -0.7044 H         1 <0>         0.2165
     57 H26        15.6285    4.1149   -0.8022 H         1 <0>         0.4221
@<TRIPOS>BOND
     1    1    5 2
     2    1    2 1
     3    1   33 1
     4    2    3 2
     5    2   34 1
     6    3    4 1
     7    3    6 1
     8    4    5 1
     9    5   35 1
    10    6    7 2
    11    6    8 1
    12    7   36 1
    13    8    9 1
    14    8   37 1
    15    9   14 ar
    16    9   10 ar
    17   10   11 ar
    18   10   38 1
    19   11   12 ar
    20   11   39 1
    21   12   17 1
    22   12   13 ar
    23   13   14 ar
    24   13   15 1
    25   14   40 1
    26   15   16 1
    27   16   17 2
    28   16   18 1
    29   18   19 1
    30   18   41 1
    31   19   24 1
    32   19   20 1
    33   19   42 1
    34   20   21 1
    35   20   43 1
    36   20   44 1
    37   21   22 1
    38   21   45 1
    39   21   46 1
    40   22   23 1
    41   22   25 1
    42   22   57 1
    43   23   24 1
    44   23   47 1
    45   23   48 1
    46   24   49 1
    47   24   50 1
    48   25   26 1
    49   25   51 1
    50   25   52 1
    51   26   53 1
    52   26   54 1
    53   26   27 1
    54   27   28 2
    55   27   31 1
    56   28   29 1
    57   28   55 1
    58   29   30 2
    59   30   56 1
    60   30   31 1
    61   31   32 1
@<TRIPOS>MOLECULE
CHEMBL233653__5
   57    61     0     0     0
SMALL
USER_CHARGES

@<TRIPOS>ATOM
      1 C1          1.1485   -2.4091    0.5061 C.2       1 <0>        -0.1770
      2 C2          2.4586   -2.1732    0.8579 C.2       1 <0>        -0.0944
      3 C3          3.0143   -1.0079    0.3607 C.2       1 <0>        -0.2361
      4 S1          1.6565   -0.3219   -0.5686 S.3       1 <0>         0.2069
      5 C4          0.5071   -1.5127   -0.2803 C.2       1 <0>        -0.2211
      6 C5          4.3717   -0.4738    0.5500 C.2       1 <0>         0.5011
      7 N1          5.2371   -1.1308    1.2763 N.2       1 <0>        -0.7333
      8 N2          4.7317    0.7218   -0.0396 N.pl3     1 <0>        -0.6530
      9 C6          6.0555    1.1712    0.0402 C.ar      1 <0>         0.1843
     10 C7          6.3331    2.5322    0.1464 C.ar      1 <0>        -0.1276
     11 C8          7.6202    2.9943    0.2252 C.ar      1 <0>        -0.0555
     12 C9          8.7144    2.0991    0.2016 C.ar      1 <0>         0.0894
     13 C10         8.3984    0.7261    0.0936 C.ar      1 <0>        -0.1304
     14 C11         7.1080    0.2652    0.0201 C.ar      1 <0>        -0.0518
     15 S2         10.0043   -0.0341    0.0985 S.3       1 <0>        -0.0005
     16 C12        10.9638    1.4671    0.2389 C.2       1 <0>         0.3871
     17 N3         10.0331    2.3927    0.2701 N.2       1 <0>        -0.5655
     18 N4         12.3352    1.6158    0.2991 N.pl3     1 <0>        -0.6764
     19 C13        12.9227    2.9529    0.4144 C.3       1 <0>         0.1532
     20 C14        13.0741    3.5677   -0.9799 C.3       1 <0>        -0.1628
     21 C15        13.7606    4.9300   -0.8589 C.3       1 <0>        -0.0005
     22 N5         15.0856    4.7618   -0.2502 N.4       1 <0>        -0.3853
     23 C16        14.9442    4.2397    1.1143 C.3       1 <0>        -0.0053
     24 C17        14.3033    2.8510    1.0693 C.3       1 <0>        -0.1568
     25 C18        15.7715    6.0601   -0.2075 C.3       1 <0>        -0.0021
     26 C19        17.1979    5.8665    0.3110 C.3       1 <0>        -0.0493
     27 C20        17.9016    7.1984    0.3548 C.2       1 <0>        -0.0258
     28 C21        18.5036    7.7404    1.4306 C.2       1 <0>        -0.0286
     29 N6         19.0121    8.9477    1.0336 N.pl3     1 <0>        -0.5633
     30 C22        18.7029    9.1015   -0.2719 C.2       1 <0>         0.2050
     31 N7         18.0431    8.0492   -0.6724 N.2       1 <0>        -0.4930
     32 H1         19.5028    9.5754    1.5868 H         1 <0>         0.4298
     33 H2          0.6411   -3.2988    0.8488 H         1 <0>         0.1406
     34 H3          3.0170   -2.8545    1.4828 H         1 <0>         0.1433
     35 H4         -0.5104   -1.5539   -0.6401 H         1 <0>         0.1911
     36 H5          4.9843   -1.9707    1.6905 H         1 <0>         0.3531
     37 H6          4.0675    1.2504   -0.5090 H         1 <0>         0.4187
     38 H7          5.5160    3.2382    0.1667 H         1 <0>         0.1367
     39 H8          7.8015    4.0559    0.3061 H         1 <0>         0.1337
     40 H9          6.9124   -0.7941   -0.0569 H         1 <0>         0.1474
     41 H10        12.9097    0.8350    0.2651 H         1 <0>         0.4238
     42 H11        12.2758    3.5839    1.0240 H         1 <0>         0.1073
     43 H12        13.6785    2.9097   -1.6042 H         1 <0>         0.0914
     44 H13        12.0897    3.6950   -1.4305 H         1 <0>         0.1185
     45 H14        13.8697    5.3706   -1.8499 H         1 <0>         0.1350
     46 H15        13.1552    5.5872   -0.2347 H         1 <0>         0.1318
     47 H16        15.9272    4.1708    1.5801 H         1 <0>         0.1381
     48 H17        14.3136    4.9117    1.6965 H         1 <0>         0.1334
     49 H18        14.1975    2.4658    2.0835 H         1 <0>         0.1209
     50 H19        14.9332    2.1780    0.4875 H         1 <0>         0.0963
     51 H20        15.8041    6.4870   -1.2099 H         1 <0>         0.1389
     52 H21        15.2317    6.7346    0.4572 H         1 <0>         0.1291
     53 H22        17.1653    5.4397    1.3134 H         1 <0>         0.0954
     54 H23        17.7377    5.1921   -0.3537 H         1 <0>         0.0956
     55 H24        18.5717    7.3062    2.4171 H         1 <0>         0.1803
     56 H25        18.9624    9.9525   -0.8842 H         1 <0>         0.2150
     57 H26        15.6285    4.1149   -0.8022 H         1 <0>         0.4231
@<TRIPOS>BOND
     1    1    5 2
     2    1    2 1
     3    1   33 1
     4    2    3 2
     5    2   34 1
     6    3    4 1
     7    3    6 1
     8    4    5 1
     9    5   35 1
    10    6    7 2
    11    6    8 1
    12    7   36 1
    13    8    9 1
    14    8   37 1
    15    9   14 ar
    16    9   10 ar
    17   10   11 ar
    18   10   38 1
    19   11   12 ar
    20   11   39 1
    21   12   17 1
    22   12   13 ar
    23   13   14 ar
    24   13   15 1
    25   14   40 1
    26   15   16 1
    27   16   17 2
    28   16   18 1
    29   18   19 1
    30   18   41 1
    31   19   24 1
    32   19   20 1
    33   19   42 1
    34   20   21 1
    35   20   43 1
    36   20   44 1
    37   21   22 1
    38   21   45 1
    39   21   46 1
    40   22   23 1
    41   22   25 1
    42   22   57 1
    43   23   24 1
    44   23   47 1
    45   23   48 1
    46   24   49 1
    47   24   50 1
    48   25   26 1
    49   25   51 1
    50   25   52 1
    51   26   53 1
    52   26   54 1
    53   26   27 1
    54   27   31 1
    55   27   28 2
    56   28   55 1
    57   28   29 1
    58   29   30 1
    59   29   32 1
    60   30   56 1
    61   30   31 2
@<TRIPOS>MOLECULE
CHEMBL397446
   50    53     0     0     0
SMALL
USER_CHARGES

@<TRIPOS>ATOM
      1 C1         -0.9422   -0.4694    2.5067 C.3       1 <0>        -0.0555
      2 N1         -0.5229   -1.1309    1.2639 N.4       1 <0>        -0.3880
      3 C2          0.0733   -2.4470    1.5774 C.3       1 <0>        -0.0110
      4 C3          1.2205   -2.6164    0.5503 C.3       1 <0>        -0.1432
      5 C4          1.7651   -1.1674    0.4471 C.3       1 <0>        -0.1422
      6 C5          0.4912   -0.3068    0.5810 C.3       1 <0>         0.0268
      7 C6          0.7920    0.9426    1.4114 C.3       1 <0>        -0.1553
      8 C7          1.7879    1.8275    0.6591 C.3       1 <0>         0.1271
      9 N2          2.1498    2.9750    1.4948 N.pl3     1 <0>        -0.6820
     10 C8          3.0410    3.9177    1.0241 C.2       1 <0>         0.4038
     11 N3          3.4874    4.9994    1.6207 N.2       1 <0>        -0.5703
     12 C9          4.3675    5.8411    1.0339 C.ar      1 <0>         0.1401
     13 C10         4.9195    7.0280    1.5633 C.ar      1 <0>        -0.0922
     14 C11         5.8150    7.7813    0.8218 C.ar      1 <0>         0.1507
     15 C12         6.1971    7.3892   -0.4677 C.ar      1 <0>        -0.1555
     16 C13         5.6694    6.2320   -1.0033 C.ar      1 <0>        -0.0347
     17 C14         4.7808    5.4834   -0.2700 C.ar      1 <0>        -0.1758
     18 S1          3.8870    3.9728   -0.5491 S.3       1 <0>        -0.0215
     19 N4          6.3347    8.9281    1.3578 N.2       1 <0>        -0.5723
     20 C15         6.2108   10.0693    0.7155 C.2       1 <0>         0.5245
     21 N5          5.4514   10.1346   -0.4353 N.pl3     1 <0>        -0.8659
     22 C16         6.8800   11.2731    1.2224 C.2       1 <0>        -0.2003
     23 C17         6.8734   12.5587    0.7062 C.2       1 <0>        -0.0993
     24 C18         7.6036   13.4891    1.4103 C.2       1 <0>        -0.1829
     25 C19         8.2615   13.1000    2.5285 C.2       1 <0>        -0.2414
     26 S2          7.9066   11.4639    2.6672 S.3       1 <0>         0.2856
     27 H1         -1.4044    0.4890    2.2701 H         1 <0>         0.1260
     28 H2         -1.6612   -1.1003    3.0293 H         1 <0>         0.1246
     29 H3         -0.0723   -0.3061    3.1428 H         1 <0>         0.1254
     30 H4          0.4693   -2.4520    2.5929 H         1 <0>         0.1329
     31 H5         -0.6666   -3.2378    1.4538 H         1 <0>         0.1369
     32 H6          1.9854   -3.2950    0.9277 H         1 <0>         0.1187
     33 H7          0.8367   -2.9586   -0.4108 H         1 <0>         0.1006
     34 H8          2.4592   -0.9577    1.2610 H         1 <0>         0.1024
     35 H9          2.2417   -1.0027   -0.5193 H         1 <0>         0.1168
     36 H10         0.1319   -0.0201   -0.4074 H         1 <0>         0.1453
     37 H11        -0.1310    1.4971    1.5808 H         1 <0>         0.1026
     38 H12         1.2197    0.6476    2.3696 H         1 <0>         0.1016
     39 H13         2.6830    1.2506    0.4265 H         1 <0>         0.0814
     40 H14         1.3329    2.1810   -0.2662 H         1 <0>         0.0812
     41 H15         1.7631    3.0722    2.3791 H         1 <0>         0.4180
     42 H16         4.6408    7.3517    2.5553 H         1 <0>         0.1347
     43 H17         6.8959    7.9853   -1.0358 H         1 <0>         0.1369
     44 H18         5.9536    5.9161   -1.9962 H         1 <0>         0.1334
     45 H19         4.9232    9.3695   -0.7119 H         1 <0>         0.4079
     46 H20         6.3304   12.8145   -0.1916 H         1 <0>         0.1423
     47 H21         7.6515   14.5148    1.0758 H         1 <0>         0.1375
     48 H22         8.8709   13.7046    3.1838 H         1 <0>         0.1902
     49 H23        -1.3210   -1.2571    0.6595 H         1 <0>         0.4301
     50 H24         5.4461   10.9456   -0.9675 H         1 <0>         0.4032
@<TRIPOS>BOND
     1    1    2 1
     2    1   27 1
     3    1   28 1
     4    1   29 1
     5    2    6 1
     6    2    3 1
     7    2   49 1
     8    3    4 1
     9    3   30 1
    10    3   31 1
    11    4    5 1
    12    4   32 1
    13    4   33 1
    14    5    6 1
    15    5   34 1
    16    5   35 1
    17    6    7 1
    18    6   36 1
    19    7    8 1
    20    7   37 1
    21    7   38 1
    22    8    9 1
    23    8   39 1
    24    8   40 1
    25    9   10 1
    26    9   41 1
    27   10   18 1
    28   10   11 2
    29   11   12 1
    30   12   17 ar
    31   12   13 ar
    32   13   14 ar
    33   13   42 1
    34   14   15 ar
    35   14   19 1
    36   15   16 ar
    37   15   43 1
    38   16   17 ar
    39   16   44 1
    40   17   18 1
    41   19   20 2
    42   20   21 1
    43   20   22 1
    44   21   45 1
    45   21   50 1
    46   22   26 1
    47   22   23 2
    48   23   24 1
    49   23   46 1
    50   24   25 2
    51   24   47 1
    52   25   26 1
    53   25   48 1
@<TRIPOS>MOLECULE
CHEMBL397446__1
   50    53     0     0     0
SMALL
USER_CHARGES

@<TRIPOS>ATOM
      1 C1         -0.8304   -0.6125    2.1018 C.3       1 <0>        -0.0556
      2 N1         -0.7518   -0.9600    0.6767 N.4       1 <0>        -0.3881
      3 C2         -0.1473   -2.3006    0.5241 C.3       1 <0>        -0.0110
      4 C3          0.7079   -2.2046   -0.7640 C.3       1 <0>        -0.1433
      5 C4          1.2653   -0.7603   -0.6632 C.3       1 <0>        -0.1421
      6 C5          0.0958    0.0200   -0.0270 C.3       1 <0>         0.0267
      7 C6          0.6368    1.0493    0.9674 C.3       1 <0>        -0.1551
      8 C7          1.4480    2.1069    0.2162 C.3       1 <0>         0.1272
      9 N2          2.0495    3.0347    1.1772 N.pl3     1 <0>        -0.6825
     10 C8          2.8314    4.0803    0.7303 C.2       1 <0>         0.4008
     11 N3          3.4530    5.0022    1.4301 N.2       1 <0>        -0.5701
     12 C9          4.1912    5.9761    0.8533 C.ar      1 <0>         0.1374
     13 C10         4.9041    7.0195    1.4869 C.ar      1 <0>        -0.1163
     14 C11         5.6120    7.9379    0.7448 C.ar      1 <0>         0.1971
     15 C12         5.6497    7.8707   -0.6462 C.ar      1 <0>        -0.0918
     16 C13         4.9619    6.8609   -1.2925 C.ar      1 <0>        -0.0408
     17 C14         4.2543    5.9423   -0.5580 C.ar      1 <0>        -0.1679
     18 S1          3.2625    4.5203   -0.9474 S.3       1 <0>        -0.0193
     19 N4          6.3078    8.9604    1.4013 N.pl3     1 <0>        -0.6596
     20 C15         7.5329    9.3801    0.9219 C.2       1 <0>         0.5024
     21 N5          8.0943    8.7508   -0.0765 N.2       1 <0>        -0.7316
     22 C16         8.2061   10.5354    1.5350 C.2       1 <0>        -0.2340
     23 C17         9.4191   11.1134    1.2058 C.2       1 <0>        -0.0953
     24 C18         9.7922   12.1973    1.9686 C.2       1 <0>        -0.1766
     25 C19         8.9729   12.6155    2.9622 C.2       1 <0>        -0.2224
     26 S2          7.6678   11.5601    2.8907 S.3       1 <0>         0.2050
     27 H1         -1.3257    0.3520    2.2138 H         1 <0>         0.1259
     28 H2         -1.3993   -1.3767    2.6313 H         1 <0>         0.1244
     29 H3          0.1755   -0.5549    2.5178 H         1 <0>         0.1257
     30 H4          0.4837   -2.5322    1.3821 H         1 <0>         0.1327
     31 H5         -0.9243   -3.0562    0.4083 H         1 <0>         0.1368
     32 H6          1.5155   -2.9366   -0.7519 H         1 <0>         0.1186
     33 H7          0.0889   -2.3231   -1.6534 H         1 <0>         0.1006
     34 H8          2.1441   -0.7305   -0.0191 H         1 <0>         0.1023
     35 H9          1.4979   -0.3671   -1.6528 H         1 <0>         0.1170
     36 H10        -0.4824    0.5201   -0.8039 H         1 <0>         0.1455
     37 H11        -0.1954    1.5284    1.4833 H         1 <0>         0.1025
     38 H12         1.2764    0.5500    1.6952 H         1 <0>         0.1013
     39 H13         2.2348    1.6198   -0.3599 H         1 <0>         0.0812
     40 H14         0.7916    2.6571   -0.4580 H         1 <0>         0.0813
     41 H15         1.8981    2.9140    2.1277 H         1 <0>         0.4175
     42 H16         4.8930    7.0972    2.5640 H         1 <0>         0.1335
     43 H17         6.2097    8.5996   -1.2132 H         1 <0>         0.1501
     44 H18         4.9811    6.7949   -2.3703 H         1 <0>         0.1359
     45 H19         5.9291    9.3740    2.1928 H         1 <0>         0.4166
     46 H20         8.9549    9.0455   -0.4132 H         1 <0>         0.3529
     47 H21        10.0346   10.7381    0.4016 H         1 <0>         0.1438
     48 H22        10.7253   12.7065    1.7774 H         1 <0>         0.1403
     49 H23         9.1222   13.4412    3.6421 H         1 <0>         0.1906
     50 H24        -1.6772   -0.9592    0.2746 H         1 <0>         0.4301
@<TRIPOS>BOND
     1    1    2 1
     2    1   27 1
     3    1   28 1
     4    1   29 1
     5    2    6 1
     6    2    3 1
     7    2   50 1
     8    3    4 1
     9    3   30 1
    10    3   31 1
    11    4    5 1
    12    4   32 1
    13    4   33 1
    14    5    6 1
    15    5   34 1
    16    5   35 1
    17    6    7 1
    18    6   36 1
    19    7    8 1
    20    7   37 1
    21    7   38 1
    22    8    9 1
    23    8   39 1
    24    8   40 1
    25    9   10 1
    26    9   41 1
    27   10   18 1
    28   10   11 2
    29   11   12 1
    30   12   17 ar
    31   12   13 ar
    32   13   14 ar
    33   13   42 1
    34   14   15 ar
    35   14   19 1
    36   15   16 ar
    37   15   43 1
    38   16   17 ar
    39   16   44 1
    40   17   18 1
    41   19   20 1
    42   19   45 1
    43   20   21 2
    44   20   22 1
    45   21   46 1
    46   22   26 1
    47   22   23 2
    48   23   24 1
    49   23   47 1
    50   24   25 2
    51   24   48 1
    52   25   26 1
    53   25   49 1
@<TRIPOS>MOLECULE
CHEMBL397446__2
   50    53     0     0     0
SMALL
USER_CHARGES

@<TRIPOS>ATOM
      1 C1         -2.6170    1.6681   -1.6291 C.3       1 <0>        -0.0555
      2 N1         -2.0495    1.2295   -2.9111 N.4       1 <0>        -0.3881
      3 C2         -1.8061   -0.2283   -2.8748 C.3       1 <0>        -0.0112
      4 C3         -0.5024   -0.4321   -3.6863 C.3       1 <0>        -0.1432
      5 C4          0.3168    0.8223   -3.2834 C.3       1 <0>        -0.1427
      6 C5         -0.7649    1.9143   -3.1453 C.3       1 <0>         0.0269
      7 C6         -0.4369    2.8249   -1.9604 C.3       1 <0>        -0.1553
      8 C7          0.8944    3.5345   -2.2157 C.3       1 <0>         0.1256
      9 N2          1.2033    4.4143   -1.0858 N.pl3     1 <0>        -0.6798
     10 C8          2.3628    5.1629   -1.0910 C.2       1 <0>         0.4073
     11 N3          2.8105    5.9949   -0.1782 N.2       1 <0>        -0.5731
     12 C9          3.9746    6.6669   -0.3177 C.ar      1 <0>         0.1498
     13 C10         4.5642    7.5839    0.5822 C.ar      1 <0>        -0.1104
     14 C11         5.7656    8.1865    0.2842 C.ar      1 <0>         0.1829
     15 C12         6.4365    7.9150   -0.9061 C.ar      1 <0>        -0.1459
     16 C13         5.8834    7.0224   -1.8048 C.ar      1 <0>        -0.0230
     17 C14         4.6858    6.4184   -1.5132 C.ar      1 <0>        -0.1742
     18 S1          3.6409    5.2411   -2.3377 S.3       1 <0>        -0.0076
     19 N4          6.3242    9.0909    1.1957 N.pl3     1 <0>        -0.7044
     20 C15         7.6834    9.0750    1.4391 C.2       1 <0>         0.4986
     21 N5          8.4315    8.1441    0.9084 N.2       1 <0>        -0.7291
     22 C16         8.2892   10.1060    2.2958 C.2       1 <0>        -0.1845
     23 C17         9.6145   10.2715    2.6566 C.2       1 <0>        -0.0706
     24 C18         9.8813   11.3421    3.4804 C.2       1 <0>        -0.1802
     25 C19         8.8604   12.1403    3.8728 C.2       1 <0>        -0.2219
     26 S2          7.5081   11.4721    3.1333 S.3       1 <0>         0.1962
     27 H1         -2.7880    2.7443   -1.6567 H         1 <0>         0.1261
     28 H2         -3.5625    1.1543   -1.4556 H         1 <0>         0.1248
     29 H3         -1.9216    1.4312   -0.8239 H         1 <0>         0.1251
     30 H4         -1.6698   -0.5647   -1.8470 H         1 <0>         0.1329
     31 H5         -2.6323   -0.7628   -3.3435 H         1 <0>         0.1370
     32 H6          0.0080   -1.3459   -3.3822 H         1 <0>         0.1188
     33 H7         -0.7059   -0.4382   -4.7571 H         1 <0>         0.1008
     34 H8          0.8256    0.6615   -2.3330 H         1 <0>         0.1024
     35 H9          1.0307    1.0836   -4.0646 H         1 <0>         0.1171
     36 H10        -0.8191    2.5007   -4.0626 H         1 <0>         0.1456
     37 H11        -1.2271    3.5664   -1.8423 H         1 <0>         0.1028
     38 H12        -0.3614    2.2267   -1.0524 H         1 <0>         0.1018
     39 H13         1.6859    2.7933   -2.3261 H         1 <0>         0.0829
     40 H14         0.8214    4.1267   -3.1279 H         1 <0>         0.0822
     41 H15         0.5930    4.4707   -0.3340 H         1 <0>         0.4189
     42 H16         4.0670    7.8143    1.5128 H         1 <0>         0.1379
     43 H17         7.3781    8.3968   -1.1244 H         1 <0>         0.1464
     44 H18         6.3910    6.8012   -2.7320 H         1 <0>         0.1413
     45 H19         5.7564    9.7285    1.6561 H         1 <0>         0.4080
     46 H20        10.3906    9.6031    2.3140 H         1 <0>         0.1530
     47 H21        10.8905   11.5420    3.8091 H         1 <0>         0.1404
     48 H22         8.9058   13.0100    4.5116 H         1 <0>         0.1904
     49 H23        -2.6910    1.4461   -3.6592 H         1 <0>         0.4304
     50 H24         8.0219    7.4098    0.4247 H         1 <0>         0.3464
@<TRIPOS>BOND
     1    1    2 1
     2    1   27 1
     3    1   28 1
     4    1   29 1
     5    2    6 1
     6    2    3 1
     7    2   49 1
     8    3    4 1
     9    3   30 1
    10    3   31 1
    11    4    5 1
    12    4   32 1
    13    4   33 1
    14    5    6 1
    15    5   34 1
    16    5   35 1
    17    6    7 1
    18    6   36 1
    19    7    8 1
    20    7   37 1
    21    7   38 1
    22    8    9 1
    23    8   39 1
    24    8   40 1
    25    9   10 1
    26    9   41 1
    27   10   18 1
    28   10   11 2
    29   11   12 1
    30   12   17 ar
    31   12   13 ar
    32   13   14 ar
    33   13   42 1
    34   14   15 ar
    35   14   19 1
    36   15   16 ar
    37   15   43 1
    38   16   17 ar
    39   16   44 1
    40   17   18 1
    41   19   20 1
    42   19   45 1
    43   20   21 2
    44   20   22 1
    45   21   50 1
    46   22   26 1
    47   22   23 2
    48   23   24 1
    49   23   46 1
    50   24   25 2
    51   24   47 1
    52   25   26 1
    53   25   48 1
@<TRIPOS>MOLECULE
CHEMBL397446__3
   51    54     0     0     0
SMALL
USER_CHARGES

@<TRIPOS>ATOM
      1 C1         -2.6201    1.6713   -1.6256 C.3       1 <0>        -0.0560
      2 N1         -2.0580    1.2396   -2.9123 N.4       1 <0>        -0.3883
      3 C2         -1.8183   -0.2190   -2.8862 C.3       1 <0>        -0.0116
      4 C3         -0.5179   -0.4210   -3.7033 C.3       1 <0>        -0.1434
      5 C4          0.3060    0.8286   -3.2949 C.3       1 <0>        -0.1430
      6 C5         -0.7723    1.9225   -3.1462 C.3       1 <0>         0.0269
      7 C6         -0.4380    2.8245   -1.9564 C.3       1 <0>        -0.1564
      8 C7          0.8935    3.5334   -2.2121 C.3       1 <0>         0.1193
      9 N2          1.2025    4.4142   -1.0830 N.pl3     1 <0>        -0.6687
     10 C8          2.3622    5.1624   -1.0887 C.2       1 <0>         0.4253
     11 N3          2.8099    5.9953   -0.1767 N.2       1 <0>        -0.5828
     12 C9          3.9743    6.6667   -0.3166 C.ar      1 <0>         0.1670
     13 C10         4.5640    7.5844    0.5825 C.ar      1 <0>        -0.0773
     14 C11         5.7657    8.1863    0.2843 C.ar      1 <0>         0.1109
     15 C12         6.4369    7.9133   -0.9056 C.ar      1 <0>        -0.1658
     16 C13         5.8836    7.0199   -1.8035 C.ar      1 <0>        -0.0050
     17 C14         4.6858    6.4167   -1.5117 C.ar      1 <0>        -0.1692
     18 S1          3.6407    5.2389   -2.3351 S.3       1 <0>         0.0330
     19 N4          6.3243    9.0914    1.1949 N.pl3     1 <0>        -0.6121
     20 C15         7.6834    9.0750    1.4391 C.cat     1 <0>         0.6504
     21 N5          8.4315    8.1441    0.9084 N.pl3     1 <0>        -0.7331
     22 C16         8.2891   10.1054    2.2967 C.2       1 <0>        -0.3395
     23 C17         9.4062   10.0182    3.1080 C.2       1 <0>        -0.0185
     24 C18         9.7342   11.1627    3.7998 C.2       1 <0>        -0.1956
     25 C19         8.9658   12.2669    3.6463 C.2       1 <0>        -0.1677
     26 S2          7.7793   11.7939    2.5551 S.3       1 <0>         0.3128
     27 H1         -2.7890    2.7480   -1.6458 H         1 <0>         0.1256
     28 H2         -3.5661    1.1583   -1.4519 H         1 <0>         0.1270
     29 H3         -1.9224    1.4280   -0.8243 H         1 <0>         0.1244
     30 H4         -1.6796   -0.5626   -1.8611 H         1 <0>         0.1335
     31 H5         -2.6475   -0.7483   -3.3557 H         1 <0>         0.1391
     32 H6         -0.0089   -1.3381   -3.4069 H         1 <0>         0.1200
     33 H7         -0.7249   -0.4195   -4.7734 H         1 <0>         0.1021
     34 H8          0.8174    0.6602   -2.3472 H         1 <0>         0.1014
     35 H9          1.0180    1.0931   -4.0767 H         1 <0>         0.1166
     36 H10        -0.8279    2.5150   -4.0594 H         1 <0>         0.1460
     37 H11        -1.2264    3.5666   -1.8302 H         1 <0>         0.1048
     38 H12        -0.3601    2.2199   -1.0527 H         1 <0>         0.1037
     39 H13         1.6848    2.7917   -2.3215 H         1 <0>         0.0878
     40 H14         0.8210    4.1246   -3.1249 H         1 <0>         0.0874
     41 H15         0.5920    4.4716   -0.3314 H         1 <0>         0.4240
     42 H16         4.0666    7.8160    1.5128 H         1 <0>         0.1500
     43 H17         7.3787    8.3946   -1.1242 H         1 <0>         0.1486
     44 H18         6.3914    6.7976   -2.7304 H         1 <0>         0.1535
     45 H19         5.7567    9.7300    1.6542 H         1 <0>         0.4470
     46 H20         9.3964    8.1875    0.9981 H         1 <0>         0.4486
     47 H21         9.9841    9.1099    3.1937 H         1 <0>         0.1591
     48 H22        10.5921   11.1792    4.4557 H         1 <0>         0.1599
     49 H23         9.0897   13.2320    4.1149 H         1 <0>         0.2100
     50 H24        -2.7014    1.4628   -3.6568 H         1 <0>         0.4320
     51 H25         8.0219    7.4098    0.4247 H         1 <0>         0.4364
@<TRIPOS>BOND
     1    1    2 1
     2    1   27 1
     3    1   28 1
     4    1   29 1
     5    2    6 1
     6    2    3 1
     7    2   50 1
     8    3    4 1
     9    3   30 1
    10    3   31 1
    11    4    5 1
    12    4   32 1
    13    4   33 1
    14    5    6 1
    15    5   34 1
    16    5   35 1
    17    6    7 1
    18    6   36 1
    19    7    8 1
    20    7   37 1
    21    7   38 1
    22    8    9 1
    23    8   39 1
    24    8   40 1
    25    9   10 1
    26    9   41 1
    27   10   18 1
    28   10   11 2
    29   11   12 1
    30   12   17 ar
    31   12   13 ar
    32   13   14 ar
    33   13   42 1
    34   14   15 ar
    35   14   19 1
    36   15   16 ar
    37   15   43 1
    38   16   17 ar
    39   16   44 1
    40   17   18 1
    41   19   20 1
    42   19   45 1
    43   20   21 2
    44   20   22 1
    45   21   46 1
    46   21   51 1
    47   22   26 1
    48   22   23 2
    49   23   24 1
    50   23   47 1
    51   24   25 2
    52   24   48 1
    53   25   26 1
    54   25   49 1
@<TRIPOS>MOLECULE
CHEMBL397446__4
   50    53     0     0     0
SMALL
USER_CHARGES

@<TRIPOS>ATOM
      1 C1         -0.0714    1.6863   -0.0616 C.3       1 <0>        -0.0561
      2 N1         -0.0382    0.2339    0.1560 N.4       1 <0>        -0.3935
      3 C2         -1.4150   -0.2891    0.2246 C.3       1 <0>        -0.0130
      4 C3         -1.5808   -0.9606    1.6041 C.3       1 <0>        -0.1416
      5 C4         -0.1193   -1.2799    2.0153 C.3       1 <0>        -0.1372
      6 C5          0.6422   -0.0623    1.4347 C.3       1 <0>         0.0301
      7 C6          2.1091   -0.4200    1.1873 C.3       1 <0>        -0.1534
      8 C7          2.8430    0.7983    0.6235 C.3       1 <0>         0.1108
      9 N2          4.2476    0.4558    0.3865 N.pl3     1 <0>        -0.6807
     10 C8          5.1121    1.4027   -0.1239 C.2       1 <0>         0.4020
     11 N3          6.3896    1.2847   -0.4061 N.2       1 <0>        -0.5656
     12 C9          7.1196    2.3065   -0.9062 C.ar      1 <0>         0.1397
     13 C10         8.4896    2.3094   -1.2481 C.ar      1 <0>        -0.0905
     14 C11         9.0884    3.4526   -1.7517 C.ar      1 <0>         0.1526
     15 C12         8.3559    4.6326   -1.9359 C.ar      1 <0>        -0.1562
     16 C13         7.0155    4.6505   -1.6083 C.ar      1 <0>        -0.0350
     17 C14         6.4195    3.5181   -1.1083 C.ar      1 <0>        -0.1732
     18 S1          4.7764    3.0987   -0.5761 S.3       1 <0>        -0.0320
     19 N4         10.4180    3.4291   -2.0744 N.2       1 <0>        -0.5733
     20 C15        11.2361    4.3201   -1.5574 C.2       1 <0>         0.5260
     21 N5         10.7787    5.2043   -0.6013 N.pl3     1 <0>        -0.8658
     22 C16        12.6353    4.3739   -1.9972 C.2       1 <0>        -0.2019
     23 C17        13.6496    5.2206   -1.5806 C.2       1 <0>        -0.0983
     24 C18        14.8727    5.0291   -2.1823 C.2       1 <0>        -0.1831
     25 C19        15.0022    4.0551   -3.1144 C.2       1 <0>        -0.2405
     26 S2         13.4745    3.3617   -3.2009 S.3       1 <0>         0.2861
     27 H1          0.9476    2.0719   -0.0964 H         1 <0>         0.1223
     28 H2         -0.5735    1.9010   -1.0049 H         1 <0>         0.1278
     29 H3         -0.6128    2.1637    0.7551 H         1 <0>         0.1266
     30 H4         -2.1280    0.5290    0.1223 H         1 <0>         0.1341
     31 H5         -1.5729   -1.0225   -0.5662 H         1 <0>         0.1328
     32 H6         -2.0396   -0.2731    2.3147 H         1 <0>         0.1004
     33 H7         -2.1661   -1.8762    1.5192 H         1 <0>         0.1148
     34 H8         -0.0192   -1.3222    3.0998 H         1 <0>         0.1199
     35 H9          0.2213   -2.2083    1.5568 H         1 <0>         0.1020
     36 H10         0.5673    0.7896    2.1106 H         1 <0>         0.1477
     37 H11         2.5730   -0.7212    2.1265 H         1 <0>         0.1268
     38 H12         2.1672   -1.2417    0.4734 H         1 <0>         0.1022
     39 H13         2.3790    1.0995   -0.3158 H         1 <0>         0.0647
     40 H14         2.7849    1.6200    1.3373 H         1 <0>         0.0845
     41 H15         4.5699   -0.4366    0.5884 H         1 <0>         0.4221
     42 H16         9.0761    1.4122   -1.1154 H         1 <0>         0.1359
     43 H17         8.8345    5.5173   -2.3290 H         1 <0>         0.1378
     44 H18         6.4369    5.5522   -1.7440 H         1 <0>         0.1335
     45 H19         9.8860    5.1040   -0.2355 H         1 <0>         0.4079
     46 H20        13.4907    5.9826   -0.8319 H         1 <0>         0.1424
     47 H21        15.7171    5.6471   -1.9151 H         1 <0>         0.1378
     48 H22        15.8868    3.7830   -3.6711 H         1 <0>         0.1905
     49 H23         0.4552   -0.2126   -0.6025 H         1 <0>         0.4251
     50 H24        11.3500    5.9260   -0.2952 H         1 <0>         0.4036
@<TRIPOS>BOND
     1    1    2 1
     2    1   27 1
     3    1   28 1
     4    1   29 1
     5    2    6 1
     6    2    3 1
     7    2   49 1
     8    3    4 1
     9    3   30 1
    10    3   31 1
    11    4    5 1
    12    4   32 1
    13    4   33 1
    14    5    6 1
    15    5   34 1
    16    5   35 1
    17    6    7 1
    18    6   36 1
    19    7    8 1
    20    7   37 1
    21    7   38 1
    22    8    9 1
    23    8   39 1
    24    8   40 1
    25    9   10 1
    26    9   41 1
    27   10   18 1
    28   10   11 2
    29   11   12 1
    30   12   17 ar
    31   12   13 ar
    32   13   14 ar
    33   13   42 1
    34   14   15 ar
    35   14   19 1
    36   15   16 ar
    37   15   43 1
    38   16   17 ar
    39   16   44 1
    40   17   18 1
    41   19   20 2
    42   20   21 1
    43   20   22 1
    44   21   45 1
    45   21   50 1
    46   22   26 1
    47   22   23 2
    48   23   24 1
    49   23   46 1
    50   24   25 2
    51   24   47 1
    52   25   26 1
    53   25   48 1
@<TRIPOS>MOLECULE
CHEMBL397446__5
   50    53     0     0     0
SMALL
USER_CHARGES

@<TRIPOS>ATOM
      1 C1          0.4927    5.0492    1.9154 C.3       1 <0>        -0.0562
      2 N1          0.3291    3.7751    2.6280 N.4       1 <0>        -0.3936
      3 C2         -1.0714    3.6270    3.0644 C.3       1 <0>        -0.0131
      4 C3         -1.0592    3.4884    4.6013 C.3       1 <0>        -0.1417
      5 C4          0.3821    2.9961    4.8964 C.3       1 <0>        -0.1372
      6 C5          1.1989    3.7584    3.8234 C.3       1 <0>         0.0299
      7 C6          2.5039    3.0186    3.5222 C.3       1 <0>        -0.1534
      8 C7          3.2977    3.7931    2.4682 C.3       1 <0>         0.1093
      9 N2          4.5472    3.0848    2.1799 N.pl3     1 <0>        -0.6784
     10 C8          5.4331    3.5972    1.2540 C.2       1 <0>         0.4056
     11 N3          6.5881    3.1097    0.8611 N.2       1 <0>        -0.5685
     12 C9          7.3582    3.7248   -0.0635 C.ar      1 <0>         0.1496
     13 C10         8.6113    3.3094   -0.5691 C.ar      1 <0>        -0.1102
     14 C11         9.2698    4.0597   -1.5171 C.ar      1 <0>         0.1850
     15 C12         8.7274    5.2456   -2.0071 C.ar      1 <0>        -0.1459
     16 C13         7.5034    5.6761   -1.5306 C.ar      1 <0>        -0.0231
     17 C14         6.8421    4.9323   -0.5854 C.ar      1 <0>        -0.1718
     18 S1          5.2973    5.0886    0.2786 S.3       1 <0>        -0.0182
     19 N4         10.5098    3.6222   -1.9982 N.pl3     1 <0>        -0.7039
     20 C15        10.8137    3.7484   -3.3394 C.2       1 <0>         0.4993
     21 N5          9.9032    4.1650   -4.1792 N.2       1 <0>        -0.7293
     22 C16        12.1621    3.4139   -3.8227 C.2       1 <0>        -0.1862
     23 C17        12.6674    3.4753   -5.1091 C.2       1 <0>        -0.0696
     24 C18        13.9825    3.0940   -5.2544 C.2       1 <0>        -0.1806
     25 C19        14.6761    2.6953   -4.1620 C.2       1 <0>        -0.2209
     26 S2         13.5731    2.8312   -2.9022 S.3       1 <0>         0.1972
     27 H1          1.5323    5.1626    1.6077 H         1 <0>         0.1220
     28 H2         -0.1498    5.0581    1.0349 H         1 <0>         0.1280
     29 H3          0.2171    5.8723    2.5746 H         1 <0>         0.1270
     30 H4         -1.6448    4.5080    2.7761 H         1 <0>         0.1343
     31 H5         -1.5074    2.7347    2.6151 H         1 <0>         0.1329
     32 H6         -1.2421    4.4521    5.0766 H         1 <0>         0.1006
     33 H7         -1.7927    2.7511    4.9277 H         1 <0>         0.1149
     34 H8          0.6944    3.2819    5.9008 H         1 <0>         0.1200
     35 H9          0.4630    1.9182    4.7559 H         1 <0>         0.1020
     36 H10         1.4064    4.7754    4.1560 H         1 <0>         0.1480
     37 H11         3.0945    2.9374    4.4348 H         1 <0>         0.1272
     38 H12         2.2775    2.0209    3.1460 H         1 <0>         0.1024
     39 H13         2.7071    3.8743    1.5557 H         1 <0>         0.0658
     40 H14         3.5241    4.7908    2.8444 H         1 <0>         0.0859
     41 H15         4.7520    2.2556    2.6398 H         1 <0>         0.4229
     42 H16         9.0567    2.3943   -0.2077 H         1 <0>         0.1390
     43 H17         9.2574    5.8224   -2.7505 H         1 <0>         0.1476
     44 H18         7.0694    6.5933   -1.9003 H         1 <0>         0.1415
     45 H19        11.1555    3.2305   -1.3894 H         1 <0>         0.4086
     46 H20        12.0683    3.8014   -5.9464 H         1 <0>         0.1529
     47 H21        14.4539    3.1123   -6.2259 H         1 <0>         0.1406
     48 H22        15.7043    2.3689   -4.1114 H         1 <0>         0.1907
     49 H23         0.5754    3.0100    2.0181 H         1 <0>         0.4250
     50 H24         8.9900    4.2953   -3.8793 H         1 <0>         0.3461
@<TRIPOS>BOND
     1    1    2 1
     2    1   27 1
     3    1   28 1
     4    1   29 1
     5    2    6 1
     6    2    3 1
     7    2   49 1
     8    3    4 1
     9    3   30 1
    10    3   31 1
    11    4    5 1
    12    4   32 1
    13    4   33 1
    14    5    6 1
    15    5   34 1
    16    5   35 1
    17    6    7 1
    18    6   36 1
    19    7    8 1
    20    7   37 1
    21    7   38 1
    22    8    9 1
    23    8   39 1
    24    8   40 1
    25    9   10 1
    26    9   41 1
    27   10   18 1
    28   10   11 2
    29   11   12 1
    30   12   17 ar
    31   12   13 ar
    32   13   14 ar
    33   13   42 1
    34   14   15 ar
    35   14   19 1
    36   15   16 ar
    37   15   43 1
    38   16   17 ar
    39   16   44 1
    40   17   18 1
    41   19   20 1
    42   19   45 1
    43   20   21 2
    44   20   22 1
    45   21   50 1
    46   22   26 1
    47   22   23 2
    48   23   24 1
    49   23   46 1
    50   24   25 2
    51   24   47 1
    52   25   26 1
    53   25   48 1
@<TRIPOS>MOLECULE
CHEMBL397446__6
   50    53     0     0     0
SMALL
USER_CHARGES

@<TRIPOS>ATOM
      1 C1          0.0809    2.7259    1.0444 C.3       1 <0>        -0.0562
      2 N1         -0.1298    1.2827    0.8694 N.4       1 <0>        -0.3935
      3 C2         -1.5636    0.9697    1.0114 C.3       1 <0>        -0.0130
      4 C3         -1.6997   -0.0316    2.1777 C.3       1 <0>        -0.1417
      5 C4         -0.2860   -0.6651    2.2612 C.3       1 <0>        -0.1372
      6 C5          0.6189    0.5412    1.9065 C.3       1 <0>         0.0300
      7 C6          1.9596    0.0563    1.3514 C.3       1 <0>        -0.1532
      8 C7          2.8394    1.2626    1.0171 C.3       1 <0>         0.1110
      9 N2          4.1232    0.7983    0.4856 N.pl3     1 <0>        -0.6812
     10 C8          5.0866    1.7130    0.1116 C.2       1 <0>         0.3988
     11 N3          6.2828    1.4933   -0.3853 N.2       1 <0>        -0.5653
     12 C9          7.1291    2.4958   -0.7091 C.ar      1 <0>         0.1362
     13 C10         8.4327    2.3956   -1.2468 C.ar      1 <0>        -0.1134
     14 C11         9.1679    3.5267   -1.5214 C.ar      1 <0>         0.1981
     15 C12         8.6558    4.7997   -1.2804 C.ar      1 <0>        -0.0890
     16 C13         7.3838    4.9277   -0.7550 C.ar      1 <0>        -0.0418
     17 C14         6.6460    3.8036   -0.4792 C.ar      1 <0>        -0.1642
     18 S1          5.0214    3.4980    0.1726 S.3       1 <0>        -0.0295
     19 N4         10.4565    3.3950   -2.0531 N.pl3     1 <0>        -0.6605
     20 C15        10.8964    4.2740   -3.0230 C.2       1 <0>         0.5031
     21 N5         10.0758    5.1602   -3.5223 N.2       1 <0>        -0.7327
     22 C16        12.2885    4.2130   -3.4942 C.2       1 <0>        -0.2352
     23 C17        12.9234    4.9957   -4.4419 C.2       1 <0>        -0.0947
     24 C18        14.2477    4.6985   -4.6740 C.2       1 <0>        -0.1769
     25 C19        14.8265    3.6896   -3.9807 C.2       1 <0>        -0.2217
     26 S2         13.5992    3.1162   -2.9871 S.3       1 <0>         0.2058
     27 H1          1.1435    2.9515    0.9542 H         1 <0>         0.1227
     28 H2         -0.4722    3.2694    0.2784 H         1 <0>         0.1278
     29 H3         -0.2721    3.0277    2.0305 H         1 <0>         0.1266
     30 H4         -2.1211    1.8790    1.2364 H         1 <0>         0.1341
     31 H5         -1.9380    0.5207    0.0915 H         1 <0>         0.1326
     32 H6         -1.9449    0.4871    3.1044 H         1 <0>         0.1004
     33 H7         -2.4488   -0.7897    1.9493 H         1 <0>         0.1146
     34 H8         -0.0786   -1.0258    3.2687 H         1 <0>         0.1198
     35 H9         -0.1732   -1.4659    1.5305 H         1 <0>         0.1018
     36 H10         0.7751    1.1692    2.7836 H         1 <0>         0.1478
     37 H11         2.4592   -0.5623    2.0969 H         1 <0>         0.1267
     38 H12         1.7884   -0.5298    0.4485 H         1 <0>         0.1019
     39 H13         2.3399    1.8812    0.2716 H         1 <0>         0.0645
     40 H14         3.0106    1.8488    1.9200 H         1 <0>         0.0846
     41 H15         4.2961   -0.1520    0.3965 H         1 <0>         0.4216
     42 H16         8.8563    1.4219   -1.4438 H         1 <0>         0.1347
     43 H17         9.2462    5.6766   -1.5012 H         1 <0>         0.1492
     44 H18         6.9723    5.9075   -0.5624 H         1 <0>         0.1361
     45 H19        11.0402    2.6863   -1.7402 H         1 <0>         0.4171
     46 H20        10.3848    5.7777   -4.2037 H         1 <0>         0.3531
     47 H21        12.4125    5.7893   -4.9668 H         1 <0>         0.1436
     48 H22        14.8166    5.2618   -5.3989 H         1 <0>         0.1405
     49 H23        15.8451    3.3372   -4.0479 H         1 <0>         0.1909
     50 H24         0.1883    1.0008   -0.0457 H         1 <0>         0.4251
@<TRIPOS>BOND
     1    1    2 1
     2    1   27 1
     3    1   28 1
     4    1   29 1
     5    2    6 1
     6    2    3 1
     7    2   50 1
     8    3    4 1
     9    3   30 1
    10    3   31 1
    11    4    5 1
    12    4   32 1
    13    4   33 1
    14    5    6 1
    15    5   34 1
    16    5   35 1
    17    6    7 1
    18    6   36 1
    19    7    8 1
    20    7   37 1
    21    7   38 1
    22    8    9 1
    23    8   39 1
    24    8   40 1
    25    9   10 1
    26    9   41 1
    27   10   18 1
    28   10   11 2
    29   11   12 1
    30   12   17 ar
    31   12   13 ar
    32   13   14 ar
    33   13   42 1
    34   14   15 ar
    35   14   19 1
    36   15   16 ar
    37   15   43 1
    38   16   17 ar
    39   16   44 1
    40   17   18 1
    41   19   20 1
    42   19   45 1
    43   20   21 2
    44   20   22 1
    45   21   46 1
    46   22   26 1
    47   22   23 2
    48   23   24 1
    49   23   47 1
    50   24   25 2
    51   24   48 1
    52   25   26 1
    53   25   49 1
@<TRIPOS>MOLECULE
CHEMBL397446__7
   51    54     0     0     0
SMALL
USER_CHARGES

@<TRIPOS>ATOM
      1 C1          0.4938    5.0528    1.9166 C.3       1 <0>        -0.0558
      2 N1          0.3301    3.7791    2.6299 N.4       1 <0>        -0.3940
      3 C2         -1.0704    3.6314    3.0667 C.3       1 <0>        -0.0134
      4 C3         -1.0578    3.4935    4.6036 C.3       1 <0>        -0.1422
      5 C4          0.3835    3.0011    4.8986 C.3       1 <0>        -0.1374
      6 C5          1.2002    3.7628    3.8251 C.3       1 <0>         0.0294
      7 C6          2.5050    3.0227    3.5241 C.3       1 <0>        -0.1539
      8 C7          3.2987    3.7966    2.4696 C.3       1 <0>         0.1027
      9 N2          4.5481    3.0880    2.1814 N.pl3     1 <0>        -0.6675
     10 C8          5.4338    3.5998    1.2550 C.2       1 <0>         0.4242
     11 N3          6.5887    3.1120    0.8621 N.2       1 <0>        -0.5786
     12 C9          7.3587    3.7265   -0.0629 C.ar      1 <0>         0.1672
     13 C10         8.6117    3.3107   -0.5685 C.ar      1 <0>        -0.0769
     14 C11         9.2701    4.0605   -1.5170 C.ar      1 <0>         0.1136
     15 C12         8.7277    5.2463   -2.0074 C.ar      1 <0>        -0.1658
     16 C13         7.5039    5.6771   -1.5309 C.ar      1 <0>        -0.0051
     17 C14         6.8427    4.9339   -0.5852 C.ar      1 <0>        -0.1665
     18 S1          5.2980    5.0908    0.2790 S.3       1 <0>         0.0218
     19 N4         10.5100    3.6226   -1.9981 N.pl3     1 <0>        -0.6127
     20 C15        10.8137    3.7484   -3.3394 C.cat     1 <0>         0.6512
     21 N5          9.9032    4.1650   -4.1792 N.pl3     1 <0>        -0.7336
     22 C16        12.1620    3.4134   -3.8228 C.2       1 <0>        -0.3409
     23 C17        12.5501    2.9331   -5.0607 C.2       1 <0>        -0.0179
     24 C18        13.8996    2.7111   -5.2204 C.2       1 <0>        -0.1958
     25 C19        14.7353    2.9693   -4.1868 C.2       1 <0>        -0.1668
     26 S2         13.7224    3.5282   -2.9686 S.3       1 <0>         0.3139
     27 H1          1.5333    5.1659    1.6088 H         1 <0>         0.1184
     28 H2         -0.1489    5.0614    1.0363 H         1 <0>         0.1290
     29 H3          0.2184    5.8763    2.5756 H         1 <0>         0.1285
     30 H4         -1.6437    4.5123    2.7780 H         1 <0>         0.1356
     31 H5         -1.5066    2.7389    2.6179 H         1 <0>         0.1341
     32 H6         -1.2406    4.4575    5.0785 H         1 <0>         0.1019
     33 H7         -1.7914    2.7565    4.9304 H         1 <0>         0.1169
     34 H8          0.6960    3.2873    5.9029 H         1 <0>         0.1214
     35 H9          0.4642    1.9232    4.7586 H         1 <0>         0.1026
     36 H10         1.4078    4.7800    4.1573 H         1 <0>         0.1490
     37 H11         3.0957    2.9419    4.4366 H         1 <0>         0.1291
     38 H12         2.2784    2.0249    3.1484 H         1 <0>         0.1043
     39 H13         2.7080    3.8774    1.5571 H         1 <0>         0.0708
     40 H14         3.5253    4.7944    2.8453 H         1 <0>         0.0912
     41 H15         4.7528    2.2590    2.6416 H         1 <0>         0.4280
     42 H16         9.0570    2.3958   -0.2068 H         1 <0>         0.1511
     43 H17         9.2577    5.8226   -2.7513 H         1 <0>         0.1494
     44 H18         7.0699    6.5943   -1.9010 H         1 <0>         0.1538
     45 H19        11.1556    3.2309   -1.3893 H         1 <0>         0.4476
     46 H20        10.1406    4.3440   -5.1025 H         1 <0>         0.4487
     47 H21        11.8395    2.7438   -5.8517 H         1 <0>         0.1591
     48 H22        14.2859    2.3360   -6.1566 H         1 <0>         0.1601
     49 H23        15.8079    2.8480   -4.1544 H         1 <0>         0.2102
     50 H24         0.5762    3.0136    2.0203 H         1 <0>         0.4239
     51 H25         8.9900    4.2953   -3.8793 H         1 <0>         0.4361
@<TRIPOS>BOND
     1    1    2 1
     2    1   27 1
     3    1   28 1
     4    1   29 1
     5    2    6 1
     6    2    3 1
     7    2   50 1
     8    3    4 1
     9    3   30 1
    10    3   31 1
    11    4    5 1
    12    4   32 1
    13    4   33 1
    14    5    6 1
    15    5   34 1
    16    5   35 1
    17    6    7 1
    18    6   36 1
    19    7    8 1
    20    7   37 1
    21    7   38 1
    22    8    9 1
    23    8   39 1
    24    8   40 1
    25    9   10 1
    26    9   41 1
    27   10   18 1
    28   10   11 2
    29   11   12 1
    30   12   17 ar
    31   12   13 ar
    32   13   14 ar
    33   13   42 1
    34   14   15 ar
    35   14   19 1
    36   15   16 ar
    37   15   43 1
    38   16   17 ar
    39   16   44 1
    40   17   18 1
    41   19   20 1
    42   19   45 1
    43   20   21 2
    44   20   22 1
    45   21   46 1
    46   21   51 1
    47   22   26 1
    48   22   23 2
    49   23   24 1
    50   23   47 1
    51   24   25 2
    52   24   48 1
    53   25   26 1
    54   25   49 1
@<TRIPOS>MOLECULE
CHEMBL412797
   47    50     0     0     0
SMALL
USER_CHARGES

@<TRIPOS>ATOM
      1 C1          0.6063   -0.0322    2.1717 C.2       1 <0>        -0.1814
      2 C2          1.9198    0.3416    2.3444 C.2       1 <0>        -0.1045
      3 C3          2.6928    0.3709    1.1950 C.2       1 <0>        -0.1916
      4 S1          1.5182   -0.1294   -0.0491 S.3       1 <0>         0.2849
      5 C4          0.1673   -0.3380    0.9275 C.2       1 <0>        -0.2463
      6 C5          4.1092    0.7229    1.0416 C.2       1 <0>         0.5146
      7 N1          4.8531    1.0888    2.1457 N.pl3     1 <0>        -0.8661
      8 N2          4.6701    0.6899   -0.1479 N.2       1 <0>        -0.5618
      9 C6          6.0155    0.9001   -0.2757 C.ar      1 <0>         0.1322
     10 C7          6.5004    1.9254   -1.0983 C.ar      1 <0>        -0.1048
     11 C8          7.8318    2.1506   -1.2395 C.ar      1 <0>        -0.0605
     12 C9          8.7837    1.3555   -0.5581 C.ar      1 <0>         0.1044
     13 C10         8.2706    0.3273    0.2666 C.ar      1 <0>        -0.1349
     14 C11         6.9280    0.0989    0.4170 C.ar      1 <0>        -0.1122
     15 S2          9.7499   -0.4099    0.9185 S.3       1 <0>        -0.0301
     16 C12        10.9182    0.6552    0.0851 C.2       1 <0>         0.4119
     17 N3         10.1313    1.4560   -0.5961 N.2       1 <0>        -0.5721
     18 N4         12.2975    0.6405    0.1435 N.pl3     1 <0>        -0.6752
     19 C13        13.0737    1.6143   -0.6282 C.3       1 <0>         0.1354
     20 C14        14.5668    1.3820   -0.3877 C.3       1 <0>         0.0431
     21 N5         15.3451    2.3584   -1.1616 N.3       1 <0>        -0.5321
     22 C15        15.1905    2.1299   -2.6056 C.3       1 <0>         0.0110
     23 C16        15.9677    3.2029   -3.3727 C.3       1 <0>         0.0628
     24 O1         17.3379    3.1757   -2.9639 O.3       1 <0>        -0.3846
     25 C17        17.5253    3.3954   -1.5632 C.3       1 <0>         0.0627
     26 C18        16.7638    2.3243   -0.7777 C.3       1 <0>         0.0185
     27 H1         -0.0636   -0.0852    3.0171 H         1 <0>         0.1360
     28 H2          2.3219    0.5961    3.3139 H         1 <0>         0.1418
     29 H3         -0.8246   -0.6455    0.6310 H         1 <0>         0.1889
     30 H4          4.4334    1.1379    3.0188 H         1 <0>         0.4014
     31 H5          5.7996    2.5501   -1.6322 H         1 <0>         0.1350
     32 H6          8.1700    2.9495   -1.8827 H         1 <0>         0.1327
     33 H7          6.5783   -0.6946    1.0608 H         1 <0>         0.1276
     34 H8         12.7527   -0.0145    0.6955 H         1 <0>         0.4199
     35 H9         12.8538    1.4954   -1.6891 H         1 <0>         0.0722
     36 H10        12.8076    2.6231   -0.3128 H         1 <0>         0.0822
     37 H11        14.7867    1.5009    0.6732 H         1 <0>         0.0861
     38 H12        14.8330    0.3732   -0.7032 H         1 <0>         0.0455
     39 H13        15.5803    1.1448   -2.8620 H         1 <0>         0.0464
     40 H14        14.1349    2.1849   -2.8718 H         1 <0>         0.0913
     41 H15        15.9031    3.0042   -4.4425 H         1 <0>         0.1006
     42 H16        15.5432    4.1835   -3.1576 H         1 <0>         0.0623
     43 H17        18.5871    3.3359   -1.3243 H         1 <0>         0.1006
     44 H18        17.1460    4.3816   -1.2955 H         1 <0>         0.0619
     45 H19        16.8568    2.5212    0.2903 H         1 <0>         0.0891
     46 H20        17.1789    1.3424   -1.0049 H         1 <0>         0.0460
     47 H21         5.7956    1.2968    2.0483 H         1 <0>         0.4091
@<TRIPOS>BOND
     1    1    5 2
     2    1    2 1
     3    1   27 1
     4    2    3 2
     5    2   28 1
     6    3    4 1
     7    3    6 1
     8    4    5 1
     9    5   29 1
    10    6    7 1
    11    6    8 2
    12    7   30 1
    13    7   47 1
    14    8    9 1
    15    9   14 ar
    16    9   10 ar
    17   10   11 ar
    18   10   31 1
    19   11   12 ar
    20   11   32 1
    21   12   17 1
    22   12   13 ar
    23   13   14 ar
    24   13   15 1
    25   14   33 1
    26   15   16 1
    27   16   17 2
    28   16   18 1
    29   18   19 1
    30   18   34 1
    31   19   20 1
    32   19   35 1
    33   19   36 1
    34   20   21 1
    35   20   37 1
    36   20   38 1
    37   21   26 1
    38   21   22 1
    39   22   23 1
    40   22   39 1
    41   22   40 1
    42   23   24 1
    43   23   41 1
    44   23   42 1
    45   24   25 1
    46   25   26 1
    47   25   43 1
    48   25   44 1
    49   26   45 1
    50   26   46 1
@<TRIPOS>MOLECULE
CHEMBL412797__1
   48    51     0     0     0
SMALL
USER_CHARGES

@<TRIPOS>ATOM
      1 C1          1.0122   -2.1389    0.2127 C.2       1 <0>        -0.1946
      2 C2          2.2997   -1.9062   -0.2163 C.2       1 <0>        -0.0231
      3 C3          2.9987   -0.9352    0.4782 C.2       1 <0>        -0.3322
      4 S1          1.7980   -0.4142    1.6884 S.3       1 <0>         0.3112
      5 C4          0.5272   -1.4240    1.2553 C.2       1 <0>        -0.1733
      6 C5          4.3746   -0.4574    0.2720 C.cat     1 <0>         0.6406
      7 N1          5.2827   -1.2667   -0.2059 N.pl3     1 <0>        -0.7368
      8 N2          4.7067    0.8462    0.5835 N.pl3     1 <0>        -0.5975
      9 C6          6.0401    1.2667    0.5056 C.ar      1 <0>         0.0651
     10 C7          6.3515    2.5412    0.0372 C.ar      1 <0>        -0.0849
     11 C8          7.6485    2.9735   -0.0479 C.ar      1 <0>        -0.0556
     12 C9          8.7189    2.1349    0.3396 C.ar      1 <0>         0.1660
     13 C10         8.3688    0.8493    0.8103 C.ar      1 <0>        -0.1621
     14 C11         7.0685    0.4205    0.8997 C.ar      1 <0>        -0.0780
     15 S2          9.9537    0.1371    1.1820 S.3       1 <0>         0.0148
     16 C12        10.9495    1.5426    0.7057 C.2       1 <0>         0.4418
     17 N3         10.0432    2.4094    0.3170 N.2       1 <0>        -0.5858
     18 N4         12.3229    1.6815    0.7381 N.pl3     1 <0>        -0.6568
     19 C13        12.9431    2.9334    0.2971 C.3       1 <0>         0.1273
     20 C14        14.4632    2.8251    0.4334 C.3       1 <0>         0.0411
     21 N5         15.0851    4.0804   -0.0087 N.3       1 <0>        -0.5319
     22 C15        14.8838    4.2890   -1.4500 C.3       1 <0>         0.0111
     23 C16        15.4940    5.6332   -1.8557 C.3       1 <0>         0.0622
     24 O1         16.8775    5.6515   -1.4940 O.3       1 <0>        -0.3825
     25 C17        17.1101    5.4519   -0.0971 C.3       1 <0>         0.0620
     26 C18        16.5163    4.1059    0.3264 C.3       1 <0>         0.0185
     27 H1          0.3964   -2.8779   -0.2783 H         1 <0>         0.1582
     28 H2          2.7364   -2.4478   -1.0424 H         1 <0>         0.1584
     29 H3         -0.4525   -1.4880    1.7053 H         1 <0>         0.2085
     30 H4          6.1635   -0.9286   -0.4312 H         1 <0>         0.4361
     31 H5          4.0164    1.4706    0.8562 H         1 <0>         0.4471
     32 H6          5.5531    3.2026   -0.2656 H         1 <0>         0.1494
     33 H7          7.8562    3.9673   -0.4161 H         1 <0>         0.1519
     34 H8          6.8465   -0.5695    1.2700 H         1 <0>         0.1394
     35 H9         12.8771    0.9502    1.0528 H         1 <0>         0.4266
     36 H10        12.6841    3.1198   -0.7451 H         1 <0>         0.0798
     37 H11        12.5806    3.7555    0.9142 H         1 <0>         0.0901
     38 H12        14.7222    2.6387    1.4757 H         1 <0>         0.0886
     39 H13        14.8257    2.0030   -0.1837 H         1 <0>         0.0476
     40 H14        15.3693    3.4865   -2.0053 H         1 <0>         0.0476
     41 H15        13.8166    4.2920   -1.6717 H         1 <0>         0.0888
     42 H16        15.3977    5.7663   -2.9333 H         1 <0>         0.1014
     43 H17        14.9724    6.4400   -1.3407 H         1 <0>         0.0626
     44 H18        18.1827    5.4539    0.0972 H         1 <0>         0.1031
     45 H19        16.6356    6.2534    0.4690 H         1 <0>         0.0630
     46 H20        16.6408    3.9752    1.4014 H         1 <0>         0.0906
     47 H21        17.0279    3.3004   -0.2005 H         1 <0>         0.0479
     48 H22         5.0759   -2.2055   -0.3355 H         1 <0>         0.4468
@<TRIPOS>BOND
     1    1    5 2
     2    1    2 1
     3    1   27 1
     4    2    3 2
     5    2   28 1
     6    3    4 1
     7    3    6 1
     8    4    5 1
     9    5   29 1
    10    6    7 2
    11    6    8 1
    12    7   30 1
    13    7   48 1
    14    8    9 1
    15    8   31 1
    16    9   14 ar
    17    9   10 ar
    18   10   11 ar
    19   10   32 1
    20   11   12 ar
    21   11   33 1
    22   12   17 1
    23   12   13 ar
    24   13   14 ar
    25   13   15 1
    26   14   34 1
    27   15   16 1
    28   16   17 2
    29   16   18 1
    30   18   19 1
    31   18   35 1
    32   19   20 1
    33   19   36 1
    34   19   37 1
    35   20   21 1
    36   20   38 1
    37   20   39 1
    38   21   26 1
    39   21   22 1
    40   22   23 1
    41   22   40 1
    42   22   41 1
    43   23   24 1
    44   23   42 1
    45   23   43 1
    46   24   25 1
    47   25   26 1
    48   25   44 1
    49   25   45 1
    50   26   46 1
    51   26   47 1
@<TRIPOS>MOLECULE
CHEMBL412797__2
   47    50     0     0     0
SMALL
USER_CHARGES

@<TRIPOS>ATOM
      1 C1          1.1485   -2.4091    0.5061 C.2       1 <0>        -0.1755
      2 C2          2.4586   -2.1732    0.8579 C.2       1 <0>        -0.1000
      3 C3          3.0143   -1.0079    0.3607 C.2       1 <0>        -0.2273
      4 S1          1.6565   -0.3219   -0.5686 S.3       1 <0>         0.2055
      5 C4          0.5071   -1.5127   -0.2803 C.2       1 <0>        -0.2270
      6 C5          4.3717   -0.4738    0.5500 C.2       1 <0>         0.4983
      7 N1          5.2371   -1.1308    1.2763 N.2       1 <0>        -0.7309
      8 N2          4.7317    0.7218   -0.0396 N.pl3     1 <0>        -0.6520
      9 C6          6.0555    1.1712    0.0402 C.ar      1 <0>         0.1668
     10 C7          6.3331    2.5322    0.1464 C.ar      1 <0>        -0.1251
     11 C8          7.6202    2.9943    0.2252 C.ar      1 <0>        -0.0631
     12 C9          8.7144    2.0991    0.2016 C.ar      1 <0>         0.1074
     13 C10         8.3984    0.7261    0.0936 C.ar      1 <0>        -0.1390
     14 C11         7.1080    0.2652    0.0201 C.ar      1 <0>        -0.0461
     15 S2         10.0043   -0.0341    0.0985 S.3       1 <0>        -0.0230
     16 C12        10.9638    1.4671    0.2389 C.2       1 <0>         0.4117
     17 N3         10.0331    2.3927    0.2701 N.2       1 <0>        -0.5746
     18 N4         12.3352    1.6158    0.2991 N.pl3     1 <0>        -0.6756
     19 C13        12.9227    2.9529    0.4144 C.3       1 <0>         0.1357
     20 C14        14.4476    2.8377    0.4617 C.3       1 <0>         0.0430
     21 N5         15.0366    4.1784    0.5774 N.3       1 <0>        -0.5320
     22 C15        14.7898    4.9689   -0.6373 C.3       1 <0>         0.0111
     23 C16        15.3668    6.3746   -0.4509 C.3       1 <0>         0.0628
     24 O1         16.7600    6.2757   -0.1432 O.3       1 <0>        -0.3849
     25 C17        17.0367    5.5129    1.0345 C.3       1 <0>         0.0627
     26 C18        16.4765    4.0984    0.8631 C.3       1 <0>         0.0185
     27 H1          0.6411   -3.2988    0.8488 H         1 <0>         0.1387
     28 H2          3.0170   -2.8545    1.4828 H         1 <0>         0.1431
     29 H3         -0.5104   -1.5539   -0.6401 H         1 <0>         0.1894
     30 H4          4.9843   -1.9707    1.6905 H         1 <0>         0.3506
     31 H5          4.0675    1.2504   -0.5090 H         1 <0>         0.4164
     32 H6          5.5160    3.2382    0.1667 H         1 <0>         0.1333
     33 H7          7.8015    4.0559    0.3061 H         1 <0>         0.1338
     34 H8          6.9124   -0.7941   -0.0569 H         1 <0>         0.1441
     35 H9         12.9097    0.8350    0.2651 H         1 <0>         0.4198
     36 H10        12.6302    3.5538   -0.4467 H         1 <0>         0.0719
     37 H11        12.5658    3.4290    1.3277 H         1 <0>         0.0820
     38 H12        14.7400    2.2368    1.3229 H         1 <0>         0.0862
     39 H13        14.8045    2.3615   -0.4515 H         1 <0>         0.0454
     40 H14        15.2711    4.4878   -1.4888 H         1 <0>         0.0462
     41 H15        13.7166    5.0367   -0.8156 H         1 <0>         0.0914
     42 H16        15.2368    6.9463   -1.3698 H         1 <0>         0.1003
     43 H17        14.8482    6.8755    0.3665 H         1 <0>         0.0623
     44 H18        18.1143    5.4612    1.1898 H         1 <0>         0.1004
     45 H19        16.5666    5.9887    1.8951 H         1 <0>         0.0620
     46 H20        16.6346    3.5307    1.7801 H         1 <0>         0.0892
     47 H21        16.9848    3.6034    0.0357 H         1 <0>         0.0459
@<TRIPOS>BOND
     1    1    5 2
     2    1    2 1
     3    1   27 1
     4    2    3 2
     5    2   28 1
     6    3    4 1
     7    3    6 1
     8    4    5 1
     9    5   29 1
    10    6    7 2
    11    6    8 1
    12    7   30 1
    13    8    9 1
    14    8   31 1
    15    9   14 ar
    16    9   10 ar
    17   10   11 ar
    18   10   32 1
    19   11   12 ar
    20   11   33 1
    21   12   17 1
    22   12   13 ar
    23   13   14 ar
    24   13   15 1
    25   14   34 1
    26   15   16 1
    27   16   17 2
    28   16   18 1
    29   18   19 1
    30   18   35 1
    31   19   20 1
    32   19   36 1
    33   19   37 1
    34   20   21 1
    35   20   38 1
    36   20   39 1
    37   21   26 1
    38   21   22 1
    39   22   23 1
    40   22   40 1
    41   22   41 1
    42   23   24 1
    43   23   42 1
    44   23   43 1
    45   24   25 1
    46   25   26 1
    47   25   44 1
    48   25   45 1
    49   26   46 1
    50   26   47 1
@<TRIPOS>MOLECULE
CHEMBL412797__3
   47    50     0     0     0
SMALL
USER_CHARGES

@<TRIPOS>ATOM
      1 C1          1.1230   -2.2350   -1.1544 C.2       1 <0>        -0.1791
      2 C2          2.4107   -1.8959   -1.5049 C.2       1 <0>        -0.0751
      3 C3          2.9935   -0.8910   -0.7537 C.2       1 <0>        -0.1777
      4 S1          1.6911   -0.4903    0.3956 S.3       1 <0>         0.1972
      5 C4          0.5275   -1.5830   -0.1280 C.2       1 <0>        -0.2265
      6 C5          4.3380   -0.3060   -0.8721 C.2       1 <0>         0.4938
      7 N1          5.1608   -0.7396   -1.7903 N.2       1 <0>        -0.7319
      8 N2          4.7307    0.7013   -0.0132 N.pl3     1 <0>        -0.6967
      9 C6          6.0489    1.1726   -0.0431 C.ar      1 <0>         0.1563
     10 C7          6.3172    2.5287    0.1292 C.ar      1 <0>        -0.1206
     11 C8          7.5986    3.0120    0.1032 C.ar      1 <0>        -0.0539
     12 C9          8.6965    2.1444   -0.1001 C.ar      1 <0>         0.1134
     13 C10         8.3900    0.7755   -0.2708 C.ar      1 <0>        -0.1354
     14 C11         7.1059    0.2931   -0.2391 C.ar      1 <0>        -0.0954
     15 S2          9.9977    0.0517   -0.4907 S.3       1 <0>        -0.0117
     16 C12        10.9454    1.5600   -0.3472 C.2       1 <0>         0.4161
     17 N3         10.0105    2.4609   -0.1516 N.2       1 <0>        -0.5751
     18 N4         12.3132    1.7338   -0.4228 N.pl3     1 <0>        -0.6726
     19 C13        12.8907    3.0721   -0.2762 C.3       1 <0>         0.1344
     20 C14        14.4133    2.9868   -0.3996 C.3       1 <0>         0.0427
     21 N5         14.9925    4.3288   -0.2526 N.3       1 <0>        -0.5320
     22 C15        14.6052    5.1956   -1.3751 C.3       1 <0>         0.0109
     23 C16        15.1791    6.5973   -1.1521 C.3       1 <0>         0.0628
     24 O1         16.5985    6.5075   -1.0021 O.3       1 <0>        -0.3846
     25 C17        17.0111    5.6715    0.0825 C.3       1 <0>         0.0627
     26 C18        16.4557    4.2604   -0.1281 C.3       1 <0>         0.0185
     27 H1          0.5939   -3.0070   -1.6935 H         1 <0>         0.1388
     28 H2          2.9327   -2.3838   -2.3147 H         1 <0>         0.1523
     29 H3         -0.4678   -1.7312    0.2641 H         1 <0>         0.1893
     30 H4          4.0934    1.0824    0.6109 H         1 <0>         0.4080
     31 H5          5.4972    3.2138    0.2862 H         1 <0>         0.1380
     32 H6          7.7726    4.0692    0.2393 H         1 <0>         0.1383
     33 H7          6.9180   -0.7624   -0.3697 H         1 <0>         0.1380
     34 H8         12.8916    0.9697   -0.5729 H         1 <0>         0.4210
     35 H9         12.4989    3.7244   -1.0566 H         1 <0>         0.0731
     36 H10        12.6275    3.4764    0.7013 H         1 <0>         0.0832
     37 H11        14.8052    2.3345    0.3808 H         1 <0>         0.0866
     38 H12        14.6765    2.5826   -1.3771 H         1 <0>         0.0459
     39 H13        14.9988    4.7849   -2.3049 H         1 <0>         0.0466
     40 H14        13.5182    5.2524   -1.4330 H         1 <0>         0.0911
     41 H15        14.9429    7.2280   -2.0092 H         1 <0>         0.1005
     42 H16        14.7445    7.0294   -0.2507 H         1 <0>         0.0623
     43 H17        18.0998    5.6326    0.1183 H         1 <0>         0.1007
     44 H18        16.6297    6.0766    1.0198 H         1 <0>         0.0620
     45 H19        16.7196    3.6345    0.7244 H         1 <0>         0.0893
     46 H20        16.8790    3.8347   -1.0379 H         1 <0>         0.0462
     47 H21         6.0105   -0.2931   -1.9301 H         1 <0>         0.3480
@<TRIPOS>BOND
     1    1    5 2
     2    1    2 1
     3    1   27 1
     4    2    3 2
     5    2   28 1
     6    3    4 1
     7    3    6 1
     8    4    5 1
     9    5   29 1
    10    6    7 2
    11    6    8 1
    12    7   47 1
    13    8    9 1
    14    8   30 1
    15    9   14 ar
    16    9   10 ar
    17   10   11 ar
    18   10   31 1
    19   11   12 ar
    20   11   32 1
    21   12   17 1
    22   12   13 ar
    23   13   14 ar
    24   13   15 1
    25   14   33 1
    26   15   16 1
    27   16   17 2
    28   16   18 1
    29   18   19 1
    30   18   34 1
    31   19   20 1
    32   19   35 1
    33   19   36 1
    34   20   21 1
    35   20   37 1
    36   20   38 1
    37   21   26 1
    38   21   22 1
    39   22   23 1
    40   22   39 1
    41   22   40 1
    42   23   24 1
    43   23   41 1
    44   23   42 1
    45   24   25 1
    46   25   26 1
    47   25   43 1
    48   25   44 1
    49   26   45 1
    50   26   46 1
@<TRIPOS>MOLECULE
CHEMBL233652
   43    46     0     0     0
SMALL
USER_CHARGES

@<TRIPOS>ATOM
      1 C1         -0.0702    0.9642    0.5064 C.ar      1 <0>        -0.0722
      2 C2          1.0599    1.7513    0.3434 C.ar      1 <0>        -0.1741
      3 C3          2.2916    1.1405    0.2052 C.ar      1 <0>         0.1052
      4 N1          2.3991   -0.1738    0.2266 N.ar      1 <0>        -0.4794
      5 C4          1.3466   -0.9532    0.3797 C.ar      1 <0>         0.1295
      6 C5          0.0823   -0.4135    0.5243 C.ar      1 <0>        -0.1663
      7 C6          1.5241   -2.4496    0.3966 C.3       1 <0>        -0.0811
      8 C7          2.2516   -2.8913   -0.8748 C.3       1 <0>         0.1412
      9 N2          2.4242   -4.3460   -0.8584 N.pl3     1 <0>        -0.6753
     10 C8          3.0587   -4.9778   -1.9092 C.2       1 <0>         0.4135
     11 N3          3.5745   -4.4515   -2.9961 N.2       1 <0>        -0.5735
     12 C9          4.1720   -5.1979   -3.9518 C.ar      1 <0>         0.1073
     13 C10         4.7619   -4.7557   -5.1599 C.ar      1 <0>        -0.0629
     14 C11         5.3269   -5.6345   -6.0268 C.ar      1 <0>        -0.1025
     15 C12         5.3494   -7.0103   -5.7626 C.ar      1 <0>         0.1278
     16 C13         4.7761   -7.4818   -4.5780 C.ar      1 <0>        -0.1084
     17 C14         4.2072   -6.5904   -3.7067 C.ar      1 <0>        -0.1371
     18 S1          3.3936   -6.7191   -2.1324 S.3       1 <0>        -0.0329
     19 N4          5.9230   -7.8786   -6.6500 N.2       1 <0>        -0.5594
     20 C15         5.2353   -8.9033   -7.1058 C.2       1 <0>         0.5125
     21 N5          3.8999   -9.0374   -6.7817 N.pl3     1 <0>        -0.8674
     22 C16         5.8874   -9.9037   -7.9587 C.2       1 <0>        -0.1905
     23 C17         5.3488  -11.0401   -8.5402 C.2       1 <0>        -0.1052
     24 C18         6.2178  -11.7932   -9.2967 C.2       1 <0>        -0.1813
     25 C19         7.5040  -11.3877   -9.4204 C.2       1 <0>        -0.2470
     26 S2          7.5771   -9.9695   -8.5230 S.3       1 <0>         0.2842
     27 H1         -1.0453    1.4141    0.6212 H         1 <0>         0.1364
     28 H2          0.9782    2.8280    0.3243 H         1 <0>         0.1368
     29 H3          3.1766    1.7463    0.0778 H         1 <0>         0.1584
     30 H4         -0.7758   -1.0571    0.6498 H         1 <0>         0.1359
     31 H5          2.1112   -2.7360    1.2692 H         1 <0>         0.0929
     32 H6          0.5472   -2.9309    0.4420 H         1 <0>         0.0885
     33 H7          1.6646   -2.6049   -1.7475 H         1 <0>         0.0702
     34 H8          3.2286   -2.4100   -0.9203 H         1 <0>         0.0850
     35 H9          2.0926   -4.8653   -0.1092 H         1 <0>         0.4201
     36 H10         4.7623   -3.7019   -5.3961 H         1 <0>         0.1323
     37 H11         5.7685   -5.2650   -6.9405 H         1 <0>         0.1349
     38 H12         4.7808   -8.5380   -4.3523 H         1 <0>         0.1278
     39 H13         3.4425   -8.3265   -6.3060 H         1 <0>         0.4091
     40 H14         4.3134  -11.3174   -8.4081 H         1 <0>         0.1416
     41 H15         5.8787  -12.6951   -9.7846 H         1 <0>         0.1357
     42 H16         8.2996  -11.8645   -9.9736 H         1 <0>         0.1887
     43 H17         3.4191   -9.8425   -7.0298 H         1 <0>         0.4011
@<TRIPOS>BOND
     1    1    6 ar
     2    1    2 ar
     3    1   27 1
     4    2    3 ar
     5    2   28 1
     6    3    4 ar
     7    3   29 1
     8    4    5 ar
     9    5    6 ar
    10    5    7 1
    11    6   30 1
    12    7    8 1
    13    7   31 1
    14    7   32 1
    15    8    9 1
    16    8   33 1
    17    8   34 1
    18    9   10 1
    19    9   35 1
    20   10   18 1
    21   10   11 2
    22   11   12 1
    23   12   17 ar
    24   12   13 ar
    25   13   14 ar
    26   13   36 1
    27   14   15 ar
    28   14   37 1
    29   15   16 ar
    30   15   19 1
    31   16   17 ar
    32   16   38 1
    33   17   18 1
    34   19   20 2
    35   20   21 1
    36   20   22 1
    37   21   39 1
    38   21   43 1
    39   22   26 1
    40   22   23 2
    41   23   24 1
    42   23   40 1
    43   24   25 2
    44   24   41 1
    45   25   26 1
    46   25   42 1
@<TRIPOS>MOLECULE
CHEMBL233652__1
   44    47     0     0     0
SMALL
USER_CHARGES

@<TRIPOS>ATOM
      1 C1         -3.2359   -2.6629    0.8030 C.ar      1 <0>        -0.0705
      2 C2         -2.5630   -1.4649    0.6159 C.ar      1 <0>        -0.1696
      3 C3         -1.1935   -1.4832    0.4327 C.ar      1 <0>         0.1052
      4 N1         -0.5279   -2.6218    0.4340 N.ar      1 <0>        -0.4818
      5 C4         -1.1345   -3.7794    0.6089 C.ar      1 <0>         0.1234
      6 C5         -2.5024   -3.8393    0.7987 C.ar      1 <0>        -0.1643
      7 C6         -0.3272   -5.0519    0.6013 C.3       1 <0>        -0.0808
      8 C7          0.4775   -5.1376   -0.6972 C.3       1 <0>         0.1331
      9 N2          1.2623   -6.3746   -0.7046 N.pl3     1 <0>        -0.6565
     10 C8          2.0728   -6.6717   -1.7823 C.2       1 <0>         0.4427
     11 N3          2.2745   -5.9758   -2.8773 N.2       1 <0>        -0.5869
     12 C9          3.1054   -6.3927   -3.8599 C.ar      1 <0>         0.1683
     13 C10         3.4077   -5.7435   -5.0790 C.ar      1 <0>        -0.0576
     14 C11         4.2781   -6.3041   -5.9760 C.ar      1 <0>        -0.0840
     15 C12         4.8944   -7.5274   -5.7225 C.ar      1 <0>         0.0614
     16 C13         4.6185   -8.1907   -4.5338 C.ar      1 <0>        -0.0749
     17 C14         3.7470   -7.6312   -3.6337 C.ar      1 <0>        -0.1634
     18 S1          3.1199   -8.0972   -2.0378 S.3       1 <0>         0.0121
     19 N4          5.7804   -8.0816   -6.6544 N.pl3     1 <0>        -0.5973
     20 C15         6.9266   -8.7192   -6.2229 C.cat     1 <0>         0.6401
     21 N5          7.2460   -8.7026   -4.9556 N.pl3     1 <0>        -0.7363
     22 C16         7.7883   -9.4173   -7.1894 C.2       1 <0>        -0.3313
     23 C17         9.1553   -9.6252   -7.1475 C.2       1 <0>        -0.0235
     24 C18         9.6876  -10.3218   -8.2093 C.2       1 <0>        -0.1945
     25 C19         8.8639  -10.7458   -9.1967 C.2       1 <0>        -0.1739
     26 S2          7.3418  -10.2223   -8.7159 S.3       1 <0>         0.3107
     27 H1         -4.3053   -2.6788    0.9531 H         1 <0>         0.1386
     28 H2         -3.1026   -0.5294    0.6131 H         1 <0>         0.1390
     29 H3         -0.6621   -0.5545    0.2863 H         1 <0>         0.1596
     30 H4         -2.9934   -4.7905    0.9418 H         1 <0>         0.1365
     31 H5          0.3542   -5.0550    1.4520 H         1 <0>         0.0946
     32 H6         -0.9981   -5.9082    0.6701 H         1 <0>         0.0908
     33 H7         -0.2040   -5.1345   -1.5479 H         1 <0>         0.0783
     34 H8          1.1484   -4.2813   -0.7660 H         1 <0>         0.0924
     35 H9          1.2125   -6.9851    0.0476 H         1 <0>         0.4268
     36 H10         2.9463   -4.7938   -5.3061 H         1 <0>         0.1513
     37 H11         4.4908   -5.7867   -6.8999 H         1 <0>         0.1487
     38 H12         5.0863   -9.1403   -4.3196 H         1 <0>         0.1389
     39 H13         5.5890   -8.0176   -7.6032 H         1 <0>         0.4468
     40 H14         7.9969   -9.2279   -4.6378 H         1 <0>         0.4467
     41 H15         9.7664   -9.2638   -6.3336 H         1 <0>         0.1584
     42 H16        10.7470  -10.5266   -8.2541 H         1 <0>         0.1580
     43 H17         9.1250  -11.2985  -10.0871 H         1 <0>         0.2083
     44 H18         6.7321   -8.1648   -4.3330 H         1 <0>         0.4362
@<TRIPOS>BOND
     1    1    6 ar
     2    1    2 ar
     3    1   27 1
     4    2    3 ar
     5    2   28 1
     6    3    4 ar
     7    3   29 1
     8    4    5 ar
     9    5    6 ar
    10    5    7 1
    11    6   30 1
    12    7    8 1
    13    7   31 1
    14    7   32 1
    15    8    9 1
    16    8   33 1
    17    8   34 1
    18    9   10 1
    19    9   35 1
    20   10   18 1
    21   10   11 2
    22   11   12 1
    23   12   17 ar
    24   12   13 ar
    25   13   14 ar
    26   13   36 1
    27   14   15 ar
    28   14   37 1
    29   15   16 ar
    30   15   19 1
    31   16   17 ar
    32   16   38 1
    33   17   18 1
    34   19   20 1
    35   19   39 1
    36   20   21 2
    37   20   22 1
    38   21   40 1
    39   21   44 1
    40   22   26 1
    41   22   23 2
    42   23   24 1
    43   23   41 1
    44   24   25 2
    45   24   42 1
    46   25   26 1
    47   25   43 1
@<TRIPOS>MOLECULE
CHEMBL233652__2
   43    46     0     0     0
SMALL
USER_CHARGES

@<TRIPOS>ATOM
      1 C1         -3.2337   -2.6585    0.8024 C.ar      1 <0>        -0.0721
      2 C2         -2.5603   -1.4609    0.6155 C.ar      1 <0>        -0.1739
      3 C3         -1.1907   -1.4799    0.4323 C.ar      1 <0>         0.1052
      4 N1         -0.5257   -2.6187    0.4336 N.ar      1 <0>        -0.4796
      5 C4         -1.1329   -3.7761    0.6084 C.ar      1 <0>         0.1291
      6 C5         -2.5008   -3.8353    0.7981 C.ar      1 <0>        -0.1660
      7 C6         -0.3262   -5.0490    0.6008 C.3       1 <0>        -0.0814
      8 C7          0.4786   -5.1350   -0.6976 C.3       1 <0>         0.1402
      9 N2          1.2628   -6.3724   -0.7050 N.pl3     1 <0>        -0.6727
     10 C8          2.0732   -6.6698   -1.7826 C.2       1 <0>         0.4177
     11 N3          2.2754   -5.9740   -2.8775 N.2       1 <0>        -0.5765
     12 C9          3.1062   -6.3912   -3.8601 C.ar      1 <0>         0.1161
     13 C10         3.4090   -5.7420   -5.0792 C.ar      1 <0>        -0.0558
     14 C11         4.2791   -6.3030   -5.9761 C.ar      1 <0>        -0.1194
     15 C12         4.8948   -7.5267   -5.7226 C.ar      1 <0>         0.1533
     16 C13         4.6185   -8.1899   -4.5339 C.ar      1 <0>        -0.0921
     17 C14         3.7472   -7.6300   -3.6339 C.ar      1 <0>        -0.1370
     18 S1          3.1197   -8.0958   -2.0382 S.3       1 <0>        -0.0144
     19 N4          5.7807   -8.0812   -6.6545 N.pl3     1 <0>        -0.6975
     20 C15         6.9266   -8.7192   -6.2229 C.2       1 <0>         0.4935
     21 N5          7.2460   -8.7026   -4.9556 N.2       1 <0>        -0.7315
     22 C16         7.7880   -9.4176   -7.1893 C.2       1 <0>        -0.1766
     23 C17         8.9618  -10.1150   -6.9663 C.2       1 <0>        -0.0757
     24 C18         9.5509  -10.6676   -8.0815 C.2       1 <0>        -0.1788
     25 C19         8.9614  -10.4983   -9.2886 C.2       1 <0>        -0.2271
     26 S2          7.5872   -9.5926   -8.9520 S.3       1 <0>         0.1967
     27 H1         -4.3031   -2.6739    0.9524 H         1 <0>         0.1365
     28 H2         -3.0994   -0.5251    0.6127 H         1 <0>         0.1369
     29 H3         -0.6589   -0.5514    0.2861 H         1 <0>         0.1584
     30 H4         -2.9923   -4.7862    0.9411 H         1 <0>         0.1361
     31 H5          0.3552   -5.0524    1.4516 H         1 <0>         0.0933
     32 H6         -0.9976   -5.9050    0.6695 H         1 <0>         0.0890
     33 H7         -0.2028   -5.1315   -1.5483 H         1 <0>         0.0713
     34 H8          1.1499   -4.2790   -0.7663 H         1 <0>         0.0860
     35 H9          1.2127   -6.9829    0.0472 H         1 <0>         0.4213
     36 H10         2.9481   -4.7921   -5.3062 H         1 <0>         0.1378
     37 H11         4.4922   -5.7857   -6.8999 H         1 <0>         0.1375
     38 H12         5.0858   -9.1397   -4.3198 H         1 <0>         0.1370
     39 H13         5.5893   -8.0172   -7.6033 H         1 <0>         0.4075
     40 H14         9.3893  -10.2190   -5.9800 H         1 <0>         0.1523
     41 H15        10.4701  -11.2278   -7.9946 H         1 <0>         0.1386
     42 H16         9.2955  -10.8657  -10.2476 H         1 <0>         0.1891
     43 H17         6.7321   -8.1648   -4.3330 H         1 <0>         0.3478
@<TRIPOS>BOND
     1    1    6 ar
     2    1    2 ar
     3    1   27 1
     4    2    3 ar
     5    2   28 1
     6    3    4 ar
     7    3   29 1
     8    4    5 ar
     9    5    6 ar
    10    5    7 1
    11    6   30 1
    12    7    8 1
    13    7   31 1
    14    7   32 1
    15    8    9 1
    16    8   33 1
    17    8   34 1
    18    9   10 1
    19    9   35 1
    20   10   18 1
    21   10   11 2
    22   11   12 1
    23   12   17 ar
    24   12   13 ar
    25   13   14 ar
    26   13   36 1
    27   14   15 ar
    28   14   37 1
    29   15   16 ar
    30   15   19 1
    31   16   17 ar
    32   16   38 1
    33   17   18 1
    34   19   20 1
    35   19   39 1
    36   20   21 2
    37   20   22 1
    38   21   43 1
    39   22   26 1
    40   22   23 2
    41   23   24 1
    42   23   40 1
    43   24   25 2
    44   24   41 1
    45   25   26 1
    46   25   42 1
@<TRIPOS>MOLECULE
CHEMBL233652__3
   43    46     0     0     0
SMALL
USER_CHARGES

@<TRIPOS>ATOM
      1 C1         -1.6691    0.4748   -0.4826 C.ar      1 <0>        -0.0723
      2 C2         -0.5276    1.2303   -0.2611 C.ar      1 <0>        -0.1745
      3 C3          0.6898    0.5893   -0.1330 C.ar      1 <0>         0.1051
      4 N1          0.7731   -0.7241   -0.2196 N.ar      1 <0>        -0.4793
      5 C4         -0.2909   -1.4740   -0.4295 C.ar      1 <0>         0.1300
      6 C5         -1.5422   -0.9031   -0.5673 C.ar      1 <0>        -0.1663
      7 C6         -0.1409   -2.9707   -0.5208 C.3       1 <0>        -0.0814
      8 C7          0.8927   -3.3152   -1.5950 C.3       1 <0>         0.1415
      9 N2          1.0385   -4.7702   -1.6837 N.pl3     1 <0>        -0.6758
     10 C8          1.9220   -5.3215   -2.5904 C.2       1 <0>         0.4129
     11 N3          2.7134   -4.7130   -3.4431 N.2       1 <0>        -0.5757
     12 C9          3.5353   -5.3872   -4.2796 C.ar      1 <0>         0.1089
     13 C10         4.4294   -4.8565   -5.2378 C.ar      1 <0>        -0.0640
     14 C11         5.1985   -5.6828   -6.0138 C.ar      1 <0>        -0.1252
     15 C12         5.1293   -7.0685   -5.8889 C.ar      1 <0>         0.1653
     16 C13         4.2608   -7.6215   -4.9566 C.ar      1 <0>        -0.0458
     17 C14         3.4893   -6.7959   -4.1782 C.ar      1 <0>        -0.1396
     18 S1          2.2848   -7.0446   -2.8958 S.3       1 <0>        -0.0256
     19 N4          5.9249   -7.8935   -6.6933 N.pl3     1 <0>        -0.6517
     20 C15         6.4233   -9.0778   -6.1876 C.2       1 <0>         0.4980
     21 N5          6.2471   -9.3757   -4.9273 N.2       1 <0>        -0.7306
     22 C16         7.1526  -10.0041   -7.0673 C.2       1 <0>        -0.2266
     23 C17         7.7203  -11.2289   -6.7649 C.2       1 <0>        -0.1003
     24 C18         8.3447  -11.8734   -7.8093 C.2       1 <0>        -0.1753
     25 C19         8.3626  -11.2849   -9.0286 C.2       1 <0>        -0.2275
     26 S2          7.5284   -9.8444   -8.8026 S.3       1 <0>         0.2052
     27 H1         -2.6347    0.9482   -0.5823 H         1 <0>         0.1362
     28 H2         -0.5893    2.3062   -0.1899 H         1 <0>         0.1365
     29 H3          1.5835    1.1706    0.0396 H         1 <0>         0.1582
     30 H4         -2.4100   -1.5227   -0.7387 H         1 <0>         0.1359
     31 H5          0.1904   -3.3620    0.4411 H         1 <0>         0.0929
     32 H6         -1.1002   -3.4166   -0.7835 H         1 <0>         0.0886
     33 H7          0.5614   -2.9239   -2.5568 H         1 <0>         0.0700
     34 H8          1.8520   -2.8692   -1.3323 H         1 <0>         0.0847
     35 H9          0.5143   -5.3463   -1.1055 H         1 <0>         0.4201
     36 H10         4.5066   -3.7862   -5.3597 H         1 <0>         0.1334
     37 H11         5.8729   -5.2506   -6.7383 H         1 <0>         0.1328
     38 H12         4.1929   -8.6936   -4.8455 H         1 <0>         0.1439
     39 H13         6.1258   -7.6331   -7.6058 H         1 <0>         0.4161
     40 H14         6.5973  -10.2076   -4.5720 H         1 <0>         0.3504
     41 H15         7.6767  -11.6526   -5.7725 H         1 <0>         0.1431
     42 H16         8.8137  -12.8343   -7.6580 H         1 <0>         0.1386
     43 H17         8.8072  -11.6584   -9.9393 H         1 <0>         0.1893
@<TRIPOS>BOND
     1    1    6 ar
     2    1    2 ar
     3    1   27 1
     4    2    3 ar
     5    2   28 1
     6    3    4 ar
     7    3   29 1
     8    4    5 ar
     9    5    6 ar
    10    5    7 1
    11    6   30 1
    12    7    8 1
    13    7   31 1
    14    7   32 1
    15    8    9 1
    16    8   33 1
    17    8   34 1
    18    9   10 1
    19    9   35 1
    20   10   18 1
    21   10   11 2
    22   11   12 1
    23   12   17 ar
    24   12   13 ar
    25   13   14 ar
    26   13   36 1
    27   14   15 ar
    28   14   37 1
    29   15   16 ar
    30   15   19 1
    31   16   17 ar
    32   16   38 1
    33   17   18 1
    34   19   20 1
    35   19   39 1
    36   20   21 2
    37   20   22 1
    38   21   40 1
    39   22   26 1
    40   22   23 2
    41   23   24 1
    42   23   41 1
    43   24   25 2
    44   24   42 1
    45   25   26 1
    46   25   43 1
@<TRIPOS>MOLECULE
CHEMBL8365
   26    28     0     0     0
SMALL
USER_CHARGES

@<TRIPOS>ATOM
      1 C1         -0.0166    1.3719    0.0096 C.2       1 <0>        -0.1873
      2 C2          1.1553    2.0566    0.0021 C.2       1 <0>        -0.1730
      3 S1          2.3368    0.8561   -0.0159 S.3       1 <0>         0.3424
      4 C3          1.2835   -0.5542   -0.0121 C.2       1 <0>        -0.3559
      5 C4          0.0021   -0.0041    0.0020 C.2       1 <0>         0.0078
      6 C5         -1.1788   -0.9605    0.0051 C.3       1 <0>        -0.0828
      7 C6         -0.7745   -2.2356   -0.7310 C.3       1 <0>         0.1596
      8 N1          0.5222   -2.7613   -0.3317 N.pl3     1 <0>        -0.6179
      9 C7          1.5390   -1.9862   -0.0188 C.cat     1 <0>         0.6431
     10 N2          2.7813   -2.5044    0.2860 N.pl3     1 <0>        -0.7894
     11 C8         -0.7407   -1.9424   -2.2323 C.3       1 <0>        -0.1978
     12 C9         -1.8064   -2.6070   -3.1061 C.3       1 <0>        -0.1526
     13 C10        -0.3560   -3.0903   -3.1678 C.3       1 <0>        -0.1724
     14 H1         -0.9568    1.9030    0.0259 H         1 <0>         0.1567
     15 H2          1.2978    3.1271    0.0063 H         1 <0>         0.2099
     16 H3         -1.4514   -1.2019    1.0325 H         1 <0>         0.1115
     17 H4         -2.0256   -0.4980   -0.5020 H         1 <0>         0.1283
     18 H5         -1.5308   -2.9984   -0.5460 H         1 <0>         0.1326
     19 H6          3.5129   -1.9091    0.5127 H         1 <0>         0.4410
     20 H7          2.9230   -3.4639    0.2736 H         1 <0>         0.4317
     21 H8         -0.4176   -0.9386   -2.5081 H         1 <0>         0.1189
     22 H9         -2.5315   -3.2532   -2.6114 H         1 <0>         0.1059
     23 H10        -2.1848   -2.0404   -3.9569 H         1 <0>         0.1095
     24 H11         0.2198   -2.8416   -4.0593 H         1 <0>         0.1053
     25 H12        -0.1270   -4.0544   -2.7138 H         1 <0>         0.0961
     26 H13         0.6423   -3.7232   -0.2945 H         1 <0>         0.4289
@<TRIPOS>BOND
     1    1    5 1
     2    1    2 2
     3    1   14 1
     4    2    3 1
     5    2   15 1
     6    3    4 1
     7    4    9 1
     8    4    5 2
     9    5    6 1
    10    6    7 1
    11    6   16 1
    12    6   17 1
    13    7    8 1
    14    7   11 1
    15    7   18 1
    16    8    9 2
    17    8   26 1
    18    9   10 1
    19   10   19 1
    20   10   20 1
    21   11   13 1
    22   11   12 1
    23   11   21 1
    24   12   13 1
    25   12   22 1
    26   12   23 1
    27   13   24 1
    28   13   25 1
@<TRIPOS>MOLECULE
CHEMBL8365__1
   26    28     0     0     0
SMALL
USER_CHARGES

@<TRIPOS>ATOM
      1 C1         -0.0166    1.3719    0.0096 C.2       1 <0>        -0.1872
      2 C2          1.1553    2.0566    0.0021 C.2       1 <0>        -0.1715
      3 S1          2.3368    0.8561   -0.0155 S.3       1 <0>         0.3407
      4 C3          1.2835   -0.5542   -0.0143 C.2       1 <0>        -0.3558
      5 C4          0.0021   -0.0041    0.0020 C.2       1 <0>         0.0136
      6 C5         -1.1787   -0.9605    0.0113 C.3       1 <0>        -0.0838
      7 C6         -0.7606   -2.2433    0.7260 C.3       1 <0>         0.1599
      8 N1          0.5281   -2.7647    0.2964 N.pl3     1 <0>        -0.6227
      9 C7          1.5389   -1.9862   -0.0275 C.cat     1 <0>         0.6423
     10 N2          2.7748   -2.5011   -0.3624 N.pl3     1 <0>        -0.7897
     11 C8         -0.6980   -1.9660    2.2294 C.3       1 <0>        -0.1844
     12 C9          0.6809   -1.9734    2.8924 C.3       1 <0>        -0.1744
     13 C10        -0.2957   -3.1238    3.1452 C.3       1 <0>        -0.1654
     14 H1         -0.9568    1.9030    0.0259 H         1 <0>         0.1564
     15 H2          1.2978    3.1271    0.0058 H         1 <0>         0.2097
     16 H3         -2.0156   -0.5035    0.5393 H         1 <0>         0.1276
     17 H4         -1.4710   -1.1910   -1.0132 H         1 <0>         0.1117
     18 H5         -1.5203   -3.0042    0.5474 H         1 <0>         0.1383
     19 H6          3.5018   -1.9034   -0.5974 H         1 <0>         0.4418
     20 H7          2.9165   -3.4607   -0.3627 H         1 <0>         0.4320
     21 H8         -1.4350   -1.2577    2.6078 H         1 <0>         0.1351
     22 H9          1.5435   -2.1758    2.2575 H         1 <0>         0.0815
     23 H10         0.8513   -1.2697    3.7071 H         1 <0>         0.1077
     24 H11        -0.7676   -3.1769    4.1262 H         1 <0>         0.1104
     25 H12        -0.0755   -4.0830    2.6766 H         1 <0>         0.0962
     26 H13         0.6475   -3.7260    0.2470 H         1 <0>         0.4298
@<TRIPOS>BOND
     1    1    5 1
     2    1    2 2
     3    1   14 1
     4    2    3 1
     5    2   15 1
     6    3    4 1
     7    4    9 1
     8    4    5 2
     9    5    6 1
    10    6    7 1
    11    6   16 1
    12    6   17 1
    13    7    8 1
    14    7   11 1
    15    7   18 1
    16    8    9 2
    17    8   26 1
    18    9   10 1
    19   10   19 1
    20   10   20 1
    21   11   13 1
    22   11   12 1
    23   11   21 1
    24   12   13 1
    25   12   22 1
    26   12   23 1
    27   13   24 1
    28   13   25 1
@<TRIPOS>MOLECULE
CHEMBL266226
   29    31     0     0     0
SMALL
USER_CHARGES

@<TRIPOS>ATOM
      1 C1         -0.0167    1.3802    0.0096 C.ar      1 <0>        -0.0480
      2 C2          1.1674    2.0960    0.0022 C.ar      1 <0>        -0.1181
      3 C3          2.3793    1.4338   -0.0201 C.ar      1 <0>        -0.0485
      4 C4          2.4030    0.0437   -0.0410 C.ar      1 <0>        -0.1457
      5 C5          1.2052   -0.6740   -0.0163 C.ar      1 <0>        -0.0225
      6 C6          0.0021   -0.0041    0.0020 C.ar      1 <0>        -0.1104
      7 C7          1.2580   -2.1793    0.0096 C.3       1 <0>        -0.1110
      8 C8          2.4650   -2.6656   -0.7901 C.3       1 <0>         0.2256
      9 N1          3.6816   -1.9659   -0.3878 N.pl3     1 <0>        -0.6184
     10 C9          3.6780   -0.7066   -0.0690 C.cat     1 <0>         0.5980
     11 N2          4.8598   -0.0705    0.2425 N.pl3     1 <0>        -0.7888
     12 C10         2.2168   -2.4217   -2.2563 C.2       1 <0>        -0.0853
     13 C11         1.8028   -3.3402   -3.1475 C.2       1 <0>        -0.1544
     14 C12         1.7023   -2.6838   -4.3957 C.2       1 <0>        -0.2113
     15 C13         2.0610   -1.4034   -4.1925 C.2       1 <0>        -0.0107
     16 O1          2.3660   -1.2490   -2.8937 O.3       1 <0>        -0.1726
     17 H1         -0.9609    1.9043    0.0260 H         1 <0>         0.1468
     18 H2          1.1440    3.1757    0.0134 H         1 <0>         0.1480
     19 H3          3.3034    1.9926   -0.0215 H         1 <0>         0.1386
     20 H4         -0.9252   -0.5577    0.0108 H         1 <0>         0.1475
     21 H5          1.3444   -2.5215    1.0409 H         1 <0>         0.1180
     22 H6          0.3455   -2.5819   -0.4301 H         1 <0>         0.1290
     23 H7          2.5963   -3.7349   -0.6240 H         1 <0>         0.1600
     24 H8          4.8564    0.8699    0.4804 H         1 <0>         0.4416
     25 H9          5.6953   -0.5630    0.2239 H         1 <0>         0.4297
     26 H10         1.5887   -4.3798   -2.9480 H         1 <0>         0.1591
     27 H11         1.3966   -3.1256   -5.3325 H         1 <0>         0.1595
     28 H12         2.0941   -0.6297   -4.9454 H         1 <0>         0.2115
     29 H13         4.5180   -2.4563   -0.3576 H         1 <0>         0.4328
@<TRIPOS>BOND
     1    1    6 ar
     2    1    2 ar
     3    1   17 1
     4    2    3 ar
     5    2   18 1
     6    3    4 ar
     7    3   19 1
     8    4   10 1
     9    4    5 ar
    10    5    6 ar
    11    5    7 1
    12    6   20 1
    13    7    8 1
    14    7   21 1
    15    7   22 1
    16    8    9 1
    17    8   12 1
    18    8   23 1
    19    9   10 2
    20    9   29 1
    21   10   11 1
    22   11   24 1
    23   11   25 1
    24   12   16 1
    25   12   13 2
    26   13   14 1
    27   13   26 1
    28   14   15 2
    29   14   27 1
    30   15   16 1
    31   15   28 1
@<TRIPOS>MOLECULE
CHEMBL266226__1
   29    31     0     0     0
SMALL
USER_CHARGES

@<TRIPOS>ATOM
      1 C1         -0.0167    1.3802    0.0096 C.ar      1 <0>        -0.0480
      2 C2          1.1674    2.0960    0.0022 C.ar      1 <0>        -0.1181
      3 C3          2.3794    1.4337   -0.0059 C.ar      1 <0>        -0.0485
      4 C4          2.4034    0.0435   -0.0004 C.ar      1 <0>        -0.1457
      5 C5          1.2052   -0.6740   -0.0099 C.ar      1 <0>        -0.0225
      6 C6          0.0021   -0.0041    0.0020 C.ar      1 <0>        -0.1104
      7 C7          1.2574   -2.1790   -0.0531 C.3       1 <0>        -0.1109
      8 C8          2.4794   -2.6737    0.7181 C.3       1 <0>         0.2256
      9 N1          3.6882   -1.9696    0.3002 N.pl3     1 <0>        -0.6185
     10 C9          3.6787   -0.7069   -0.0048 C.cat     1 <0>         0.5980
     11 N2          4.8544   -0.0674   -0.3320 N.pl3     1 <0>        -0.7888
     12 C10         2.2593   -2.4457    2.1914 C.2       1 <0>        -0.0852
     13 C11         1.8726   -3.3763    3.0823 C.2       1 <0>        -0.1543
     14 C12         1.7917   -2.7322    4.3384 C.2       1 <0>        -0.2114
     15 C13         2.1339   -1.4466    4.1398 C.2       1 <0>        -0.0105
     16 O1          2.4217   -1.2801    2.8386 O.3       1 <0>        -0.1726
     17 H1         -0.9609    1.9043    0.0260 H         1 <0>         0.1467
     18 H2          1.1439    3.1758    0.0023 H         1 <0>         0.1480
     19 H3          3.3035    1.9926   -0.0161 H         1 <0>         0.1386
     20 H4         -0.9253   -0.5576    0.0058 H         1 <0>         0.1475
     21 H5          0.3534   -2.5864    0.3997 H         1 <0>         0.1291
     22 H6          1.3241   -2.5100   -1.0895 H         1 <0>         0.1180
     23 H7          2.6074   -3.7411    0.5381 H         1 <0>         0.1599
     24 H8          4.8465    0.8755   -0.5597 H         1 <0>         0.4416
     25 H9          5.6900   -0.5600   -0.3347 H         1 <0>         0.4297
     26 H10         1.6633   -4.4158    2.8774 H         1 <0>         0.1591
     27 H11         1.5090   -3.1855    5.2770 H         1 <0>         0.1595
     28 H12         2.1742   -0.6793    4.8988 H         1 <0>         0.2115
     29 H13         4.5238   -2.4596    0.2487 H         1 <0>         0.4327
@<TRIPOS>BOND
     1    1    6 ar
     2    1    2 ar
     3    1   17 1
     4    2    3 ar
     5    2   18 1
     6    3    4 ar
     7    3   19 1
     8    4   10 1
     9    4    5 ar
    10    5    6 ar
    11    5    7 1
    12    6   20 1
    13    7    8 1
    14    7   21 1
    15    7   22 1
    16    8    9 1
    17    8   12 1
    18    8   23 1
    19    9   10 2
    20    9   29 1
    21   10   11 1
    22   11   24 1
    23   11   25 1
    24   12   16 1
    25   12   13 2
    26   13   14 1
    27   13   26 1
    28   14   15 2
    29   14   27 1
    30   15   16 1
    31   15   28 1
@<TRIPOS>MOLECULE
CHEMBL540280
   39    40     0     0     0
SMALL
USER_CHARGES

@<TRIPOS>ATOM
      1 C1          0.8002   -2.8973   -7.6960 C.3       1 <0>        -0.1441
      2 C2          1.1839   -2.2423   -6.3676 C.3       1 <0>        -0.1610
      3 S1          0.9378   -3.4269   -5.0160 S.3       1 <0>         0.0980
      4 C3          1.4168   -2.5342   -3.5743 C.cat     1 <0>         0.4628
      5 N1          1.8285   -1.3009   -3.6777 N.pl3     1 <0>        -0.7443
      6 N2          1.3563   -3.1386   -2.3386 N.pl3     1 <0>        -0.5899
      7 C4          1.4172   -4.5345   -2.2378 C.ar      1 <0>         0.0439
      8 C5          0.7226   -5.1891   -1.2295 C.ar      1 <0>        -0.0633
      9 C6          0.7827   -6.5652   -1.1311 C.ar      1 <0>        -0.1261
     10 C7          1.5368   -7.2936   -2.0393 C.ar      1 <0>         0.1601
     11 C8          2.2315   -6.6403   -3.0467 C.ar      1 <0>        -0.1833
     12 C9          2.1677   -5.2646   -3.1498 C.ar      1 <0>        -0.0823
     13 O1          1.5956   -8.6486   -1.9418 O.3       1 <0>        -0.2972
     14 C10         2.3911   -9.3349   -2.9105 C.3       1 <0>         0.1010
     15 C11         2.3366  -10.8175   -2.6459 C.ar      1 <0>        -0.1094
     16 C12         3.2620  -11.4036   -1.8026 C.ar      1 <0>        -0.0937
     17 C13         3.2120  -12.7635   -1.5600 C.ar      1 <0>        -0.1214
     18 C14         2.2363  -13.5373   -2.1602 C.ar      1 <0>        -0.1020
     19 C15         1.3104  -12.9511   -3.0027 C.ar      1 <0>        -0.1216
     20 C16         1.3578  -11.5904   -3.2420 C.ar      1 <0>        -0.0937
     21 H1          1.4259   -3.7741   -7.8628 H         1 <0>         0.0796
     22 H2         -0.2467   -3.1990   -7.6633 H         1 <0>         0.0789
     23 H3          0.9481   -2.1855   -8.5081 H         1 <0>         0.1012
     24 H4          2.2309   -1.9407   -6.4002 H         1 <0>         0.1133
     25 H5          0.5582   -1.3655   -6.2007 H         1 <0>         0.1117
     26 H6          2.0199   -0.7849   -2.8789 H         1 <0>         0.4332
     27 H7          1.2716   -2.5978   -1.5378 H         1 <0>         0.4358
     28 H8          0.1356   -4.6221   -0.5220 H         1 <0>         0.1455
     29 H9          0.2427   -7.0745   -0.3466 H         1 <0>         0.1514
     30 H10         2.8187   -7.2080   -3.7533 H         1 <0>         0.1470
     31 H11         2.7047   -4.7565   -3.9371 H         1 <0>         0.1380
     32 H12         2.0051   -9.1296   -3.9089 H         1 <0>         0.0775
     33 H13         3.4232   -8.9913   -2.8422 H         1 <0>         0.0773
     34 H14         4.0242  -10.7990   -1.3337 H         1 <0>         0.1243
     35 H15         3.9354  -13.2215   -0.9017 H         1 <0>         0.1286
     36 H16         2.1977  -14.6000   -1.9711 H         1 <0>         0.1283
     37 H17         0.5484  -13.5557   -3.4719 H         1 <0>         0.1286
     38 H18         0.6321  -11.1318   -3.8973 H         1 <0>         0.1243
     39 H19         1.9434   -0.8997   -4.5533 H         1 <0>         0.4428
@<TRIPOS>BOND
     1    1    2 1
     2    1   21 1
     3    1   22 1
     4    1   23 1
     5    2    3 1
     6    2   24 1
     7    2   25 1
     8    3    4 1
     9    4    5 2
    10    4    6 1
    11    5   26 1
    12    5   39 1
    13    6    7 1
    14    6   27 1
    15    7   12 ar
    16    7    8 ar
    17    8    9 ar
    18    8   28 1
    19    9   10 ar
    20    9   29 1
    21   10   11 ar
    22   10   13 1
    23   11   12 ar
    24   11   30 1
    25   12   31 1
    26   13   14 1
    27   14   15 1
    28   14   32 1
    29   14   33 1
    30   15   20 ar
    31   15   16 ar
    32   16   17 ar
    33   16   34 1
    34   17   18 ar
    35   17   35 1
    36   18   19 ar
    37   18   36 1
    38   19   20 ar
    39   19   37 1
    40   20   38 1
@<TRIPOS>MOLECULE
CHEMBL540280__1
   38    39     0     0     0
SMALL
USER_CHARGES

@<TRIPOS>ATOM
      1 C1          1.9826   -2.0925    2.9191 C.3       1 <0>        -0.1402
      2 C2          1.8275   -1.6072    1.4764 C.3       1 <0>        -0.1083
      3 S1          1.6647   -3.0368    0.3717 S.3       1 <0>        -0.0335
      4 C3          1.4969   -2.3212   -1.2296 C.2       1 <0>         0.4000
      5 N1          1.5124   -1.0244   -1.3693 N.2       1 <0>        -0.7546
      6 N2          1.3493   -3.1309   -2.3335 N.pl3     1 <0>        -0.6851
      7 C4          1.2107   -4.5156   -2.1730 C.ar      1 <0>         0.1094
      8 C5          0.4255   -5.0205   -1.1451 C.ar      1 <0>        -0.0991
      9 C6          0.2890   -6.3857   -0.9878 C.ar      1 <0>        -0.1208
     10 C7          0.9359   -7.2525   -1.8563 C.ar      1 <0>         0.1178
     11 C8          1.7208   -6.7488   -2.8831 C.ar      1 <0>        -0.1856
     12 C9          1.8537   -5.3838   -3.0452 C.ar      1 <0>        -0.1000
     13 O1          0.8010   -8.5966   -1.7008 O.3       1 <0>        -0.3072
     14 C10         1.4951   -9.4303   -2.6310 C.3       1 <0>         0.1020
     15 C11         1.2292  -10.8772   -2.3044 C.ar      1 <0>        -0.0989
     16 C12         2.0581  -11.5514   -1.4273 C.ar      1 <0>        -0.0949
     17 C13         1.8142  -12.8786   -1.1277 C.ar      1 <0>        -0.1230
     18 C14         0.7411  -13.5316   -1.7048 C.ar      1 <0>        -0.1087
     19 C15        -0.0883  -12.8572   -2.5811 C.ar      1 <0>        -0.1232
     20 C16         0.1530  -11.5287   -2.8774 C.ar      1 <0>        -0.0953
     21 H1          1.1051   -2.6733    3.2034 H         1 <0>         0.0660
     22 H2          2.8727   -2.7166    2.9988 H         1 <0>         0.0651
     23 H3          2.0804   -1.2335    3.5829 H         1 <0>         0.0778
     24 H4          0.9374   -0.9832    1.3967 H         1 <0>         0.0933
     25 H5          2.7050   -1.0265    1.1921 H         1 <0>         0.0913
     26 H6          1.3414   -2.7425   -3.2223 H         1 <0>         0.4076
     27 H7         -0.0779   -4.3458   -0.4686 H         1 <0>         0.1459
     28 H8         -0.3214   -6.7786   -0.1881 H         1 <0>         0.1375
     29 H9          2.2245   -7.4242   -3.5587 H         1 <0>         0.1320
     30 H10         2.4610   -4.9917   -3.8476 H         1 <0>         0.1273
     31 H11         1.1466   -9.2159   -3.6413 H         1 <0>         0.0715
     32 H12         2.5653   -9.2339   -2.5665 H         1 <0>         0.0721
     33 H13         2.8965  -11.0413   -0.9764 H         1 <0>         0.1246
     34 H14         2.4622  -13.4056   -0.4430 H         1 <0>         0.1260
     35 H15         0.5510  -14.5688   -1.4712 H         1 <0>         0.1249
     36 H16        -0.9265  -13.3674   -3.0323 H         1 <0>         0.1258
     37 H17        -0.4972  -11.0007   -3.5593 H         1 <0>         0.1242
     38 H18         1.4969   -0.6320   -2.2563 H         1 <0>         0.3365
@<TRIPOS>BOND
     1    1    2 1
     2    1   21 1
     3    1   22 1
     4    1   23 1
     5    2    3 1
     6    2   24 1
     7    2   25 1
     8    3    4 1
     9    4    5 2
    10    4    6 1
    11    5   38 1
    12    6    7 1
    13    6   26 1
    14    7   12 ar
    15    7    8 ar
    16    8    9 ar
    17    8   27 1
    18    9   10 ar
    19    9   28 1
    20   10   11 ar
    21   10   13 1
    22   11   12 ar
    23   11   29 1
    24   12   30 1
    25   13   14 1
    26   14   15 1
    27   14   31 1
    28   14   32 1
    29   15   20 ar
    30   15   16 ar
    31   16   17 ar
    32   16   33 1
    33   17   18 ar
    34   17   34 1
    35   18   19 ar
    36   18   35 1
    37   19   20 ar
    38   19   36 1
    39   20   37 1
@<TRIPOS>MOLECULE
CHEMBL540280__2
   38    39     0     0     0
SMALL
USER_CHARGES

@<TRIPOS>ATOM
      1 C1         -0.9972    1.4583    0.8502 C.3       1 <0>        -0.1359
      2 C2         -1.0227   -0.0646    0.9946 C.3       1 <0>        -0.0955
      3 S1          0.5556   -0.6331    1.6847 S.3       1 <0>        -0.1729
      4 C3          0.3704   -2.3822    1.7882 C.2       1 <0>         0.4279
      5 N1         -0.7408   -2.9445    1.4001 N.2       1 <0>        -0.7473
      6 N2          1.3986   -3.1556    2.2787 N.pl3     1 <0>        -0.6404
      7 C4          1.2997   -4.5527    2.2493 C.ar      1 <0>         0.1280
      8 C5          0.6891   -5.1833    1.1735 C.ar      1 <0>        -0.0659
      9 C6          0.5924   -6.5606    1.1450 C.ar      1 <0>        -0.1331
     10 C7          1.1051   -7.3140    2.1907 C.ar      1 <0>         0.1150
     11 C8          1.7149   -6.6847    3.2660 C.ar      1 <0>        -0.1906
     12 C9          1.8174   -5.3078    3.2932 C.ar      1 <0>        -0.1058
     13 O1          1.0096   -8.6702    2.1619 O.3       1 <0>        -0.3090
     14 C10         1.5590   -9.3829    3.2720 C.3       1 <0>         0.1023
     15 C11         1.3617  -10.8627    3.0661 C.ar      1 <0>        -0.0980
     16 C12         0.2136  -11.4780    3.5290 C.ar      1 <0>        -0.0953
     17 C13         0.0327  -12.8353    3.3401 C.ar      1 <0>        -0.1232
     18 C14         0.9996  -13.5774    2.6880 C.ar      1 <0>        -0.1094
     19 C15         2.1473  -12.9620    2.2244 C.ar      1 <0>        -0.1233
     20 C16         2.3263  -11.6038    2.4094 C.ar      1 <0>        -0.0954
     21 H1         -0.1844    1.7465    0.1836 H         1 <0>         0.0701
     22 H2         -1.9456    1.7999    0.4355 H         1 <0>         0.0822
     23 H3         -0.8434    1.9136    1.8285 H         1 <0>         0.0700
     24 H4         -1.8355   -0.3528    1.6613 H         1 <0>         0.0915
     25 H5         -1.1765   -0.5199    0.0163 H         1 <0>         0.0917
     26 H6         -1.4651   -2.3996    1.0545 H         1 <0>         0.3474
     27 H7          2.1913   -2.7331    2.6446 H         1 <0>         0.4193
     28 H8          0.2895   -4.5968    0.3593 H         1 <0>         0.1388
     29 H9          0.1172   -7.0513    0.3084 H         1 <0>         0.1323
     30 H10         2.1136   -7.2719    4.0800 H         1 <0>         0.1305
     31 H11         2.2965   -4.8182    4.1282 H         1 <0>         0.1270
     32 H12         2.6242   -9.1660    3.3518 H         1 <0>         0.0713
     33 H13         1.0555   -9.0732    4.1878 H         1 <0>         0.0710
     34 H14        -0.5418  -10.8982    4.0384 H         1 <0>         0.1242
     35 H15        -0.8640  -13.3161    3.7024 H         1 <0>         0.1257
     36 H16         0.8586  -14.6380    2.5411 H         1 <0>         0.1247
     37 H17         2.9030  -13.5418    1.7152 H         1 <0>         0.1257
     38 H18         3.2213  -11.1223    2.0439 H         1 <0>         0.1243
@<TRIPOS>BOND
     1    1    2 1
     2    1   21 1
     3    1   22 1
     4    1   23 1
     5    2    3 1
     6    2   24 1
     7    2   25 1
     8    3    4 1
     9    4    5 2
    10    4    6 1
    11    5   26 1
    12    6    7 1
    13    6   27 1
    14    7   12 ar
    15    7    8 ar
    16    8    9 ar
    17    8   28 1
    18    9   10 ar
    19    9   29 1
    20   10   11 ar
    21   10   13 1
    22   11   12 ar
    23   11   30 1
    24   12   31 1
    25   13   14 1
    26   14   15 1
    27   14   32 1
    28   14   33 1
    29   15   20 ar
    30   15   16 ar
    31   16   17 ar
    32   16   34 1
    33   17   18 ar
    34   17   35 1
    35   18   19 ar
    36   18   36 1
    37   19   20 ar
    38   19   37 1
    39   20   38 1
@<TRIPOS>MOLECULE
CHEMBL541300
   68    70     0     0     0
SMALL
USER_CHARGES

@<TRIPOS>ATOM
      1 C1         -0.1103    4.4707    0.6209 C.3       1 <0>        -0.1409
      2 C2          0.0881    3.0221    1.0714 C.3       1 <0>        -0.0604
      3 C3         -1.2748    2.3424    1.2182 C.3       1 <0>        -0.1450
      4 C4          0.9092    2.2848    0.0451 C.ar      1 <0>        -0.0900
      5 C5          0.4548    2.1753   -1.2548 C.ar      1 <0>        -0.1003
      6 C6          1.2076    1.4989   -2.1969 C.ar      1 <0>        -0.1032
      7 C7          2.4167    0.9306   -1.8407 C.ar      1 <0>        -0.1003
      8 C8          2.8755    1.0374   -0.5421 C.ar      1 <0>        -0.0901
      9 C9          2.1247    1.7204    0.4037 C.ar      1 <0>         0.1134
     10 O1          2.5768    1.8320    1.6804 O.3       1 <0>        -0.4914
     11 C10         4.1934    0.4177   -0.1546 C.3       1 <0>        -0.0604
     12 C11         4.1409   -1.0908   -0.4048 C.3       1 <0>        -0.1451
     13 C12         5.3138    1.0351   -0.9939 C.3       1 <0>        -0.1410
     14 C13         0.7092    1.3805   -3.6142 C.3       1 <0>        -0.0705
     15 C14         1.2173    2.5680   -4.4343 C.3       1 <0>        -0.1461
     16 C15         0.7113    2.4478   -5.8732 C.3       1 <0>        -0.0114
     17 N1          1.1991    3.5879   -6.6607 N.4       1 <0>        -0.5103
     18 C16         0.7133    3.4725   -8.0422 C.3       1 <0>         0.0476
     19 C17         1.2138    4.6422   -8.8500 C.ar      1 <0>        -0.1487
     20 C18         0.4634    5.8029   -8.9220 C.ar      1 <0>        -0.1161
     21 C19         0.9151    6.8820   -9.6609 C.ar      1 <0>        -0.0893
     22 C20         2.1180    6.8076  -10.3320 C.ar      1 <0>        -0.1162
     23 C21         2.8808    5.6391  -10.2639 C.ar      1 <0>         0.1467
     24 C22         2.4209    4.5554   -9.5110 C.ar      1 <0>        -0.1069
     25 N2          4.0737    5.5581  -10.9267 N.2       1 <0>        -0.5974
     26 C23         5.0650    6.3590  -10.5979 C.2       1 <0>         0.5392
     27 N3          6.2133    6.3845  -11.3615 N.pl3     1 <0>        -0.8166
     28 C24         4.9485    7.2249   -9.4189 C.2       1 <0>        -0.2591
     29 C25         5.8019    8.2253   -8.9824 C.2       1 <0>        -0.0808
     30 C26         5.4232    8.8721   -7.8282 C.2       1 <0>        -0.1799
     31 C27         4.2756    8.5007   -7.2118 C.2       1 <0>        -0.2439
     32 S1          3.6682    7.2689   -8.1793 S.3       1 <0>         0.2372
     33 H1          0.8606    4.9549    0.5163 H         1 <0>         0.0552
     34 H2         -0.6288    4.4853   -0.3378 H         1 <0>         0.0524
     35 H3         -0.7042    5.0040    1.3632 H         1 <0>         0.0620
     36 H4          0.6065    3.0075    2.0302 H         1 <0>         0.0872
     37 H5         -1.7932    2.3569    0.2595 H         1 <0>         0.0548
     38 H6         -1.1334    1.3104    1.5392 H         1 <0>         0.0554
     39 H7         -1.8686    2.8757    1.9606 H         1 <0>         0.0625
     40 H8         -0.4895    2.6180   -1.5354 H         1 <0>         0.1238
     41 H9          3.0027    0.4025   -2.5783 H         1 <0>         0.1237
     42 H10         2.2959    1.1119    2.2615 H         1 <0>         0.3920
     43 H11         4.3860    0.6042    0.9019 H         1 <0>         0.0872
     44 H12         3.9484   -1.2774   -1.4613 H         1 <0>         0.0547
     45 H13         5.0941   -1.5390   -0.1245 H         1 <0>         0.0625
     46 H14         3.3427   -1.5307    0.1932 H         1 <0>         0.0554
     47 H15         5.3512    2.1098   -0.8157 H         1 <0>         0.0552
     48 H16         6.2670    0.5869   -0.7137 H         1 <0>         0.0620
     49 H17         5.1212    0.8486   -2.0505 H         1 <0>         0.0523
     50 H18         1.0768    0.4526   -4.0522 H         1 <0>         0.0829
     51 H19        -0.3808    1.3768   -3.6169 H         1 <0>         0.0831
     52 H20         0.8497    3.4959   -3.9962 H         1 <0>         0.0889
     53 H21         2.3073    2.5717   -4.4316 H         1 <0>         0.0886
     54 H22         1.0789    1.5198   -6.3113 H         1 <0>         0.1333
     55 H23        -0.3787    2.4441   -5.8760 H         1 <0>         0.1338
     56 H24         0.8589    4.4469   -6.2552 H         1 <0>         0.4270
     57 H25         1.0809    2.5446   -8.4803 H         1 <0>         0.1377
     58 H26        -0.3767    3.4689   -8.0449 H         1 <0>         0.1394
     59 H27        -0.4795    5.8666   -8.3992 H         1 <0>         0.1307
     60 H28         0.3243    7.7846   -9.7126 H         1 <0>         0.1360
     61 H29         2.4690    7.6504  -10.9089 H         1 <0>         0.1301
     62 H30         3.0073    3.6505   -9.4506 H         1 <0>         0.1320
     63 H31         6.2903    5.8122  -12.1409 H         1 <0>         0.4191
     64 H32         6.7067    8.4810   -9.5137 H         1 <0>         0.1470
     65 H33         6.0326    9.6646   -7.4195 H         1 <0>         0.1397
     66 H34         3.8468    8.9066   -6.3075 H         1 <0>         0.1877
     67 H35         2.2081    3.5913   -6.6581 H         1 <0>         0.4271
     68 H36         6.9438    6.9748  -11.1192 H         1 <0>         0.4146
@<TRIPOS>BOND
     1    1    2 1
     2    1   33 1
     3    1   34 1
     4    1   35 1
     5    2    3 1
     6    2    4 1
     7    2   36 1
     8    3   37 1
     9    3   38 1
    10    3   39 1
    11    4    9 ar
    12    4    5 ar
    13    5    6 ar
    14    5   40 1
    15    6    7 ar
    16    6   14 1
    17    7    8 ar
    18    7   41 1
    19    8    9 ar
    20    8   11 1
    21    9   10 1
    22   10   42 1
    23   11   12 1
    24   11   13 1
    25   11   43 1
    26   12   44 1
    27   12   45 1
    28   12   46 1
    29   13   47 1
    30   13   48 1
    31   13   49 1
    32   14   15 1
    33   14   50 1
    34   14   51 1
    35   15   16 1
    36   15   52 1
    37   15   53 1
    38   16   17 1
    39   16   54 1
    40   16   55 1
    41   17   18 1
    42   17   56 1
    43   17   67 1
    44   18   19 1
    45   18   57 1
    46   18   58 1
    47   19   24 ar
    48   19   20 ar
    49   20   21 ar
    50   20   59 1
    51   21   22 ar
    52   21   60 1
    53   22   23 ar
    54   22   61 1
    55   23   24 ar
    56   23   25 1
    57   24   62 1
    58   25   26 2
    59   26   27 1
    60   26   28 1
    61   27   63 1
    62   27   68 1
    63   28   32 1
    64   28   29 2
    65   29   30 1
    66   29   64 1
    67   30   31 2
    68   30   65 1
    69   31   32 1
    70   31   66 1
@<TRIPOS>MOLECULE
CHEMBL541300__1
   68    70     0     0     0
SMALL
USER_CHARGES

@<TRIPOS>ATOM
      1 C1          0.1836    2.5122   -0.3770 C.3       1 <0>        -0.1411
      2 C2          0.3015    0.9978   -0.5605 C.3       1 <0>        -0.0604
      3 C3          1.0785    0.4006    0.6144 C.3       1 <0>        -0.1449
      4 C4         -1.0763    0.3895   -0.6126 C.ar      1 <0>        -0.0899
      5 C5         -1.9369    0.5342    0.4582 C.ar      1 <0>        -0.1002
      6 C6         -3.2011   -0.0237    0.4110 C.ar      1 <0>        -0.1036
      7 C7         -3.6072   -0.7278   -0.7075 C.ar      1 <0>        -0.1003
      8 C8         -2.7504   -0.8754   -1.7810 C.ar      1 <0>        -0.0902
      9 C9         -1.4835   -0.3117   -1.7384 C.ar      1 <0>         0.1134
     10 O1         -0.6408   -0.4503   -2.7956 O.3       1 <0>        -0.4913
     11 C10        -3.1936   -1.6430   -2.9998 C.3       1 <0>        -0.0604
     12 C11        -3.5366   -3.0797   -2.6008 C.3       1 <0>        -0.1449
     13 C12        -4.4294   -0.9724   -3.6032 C.3       1 <0>        -0.1410
     14 C13        -4.1377    0.1353    1.5808 C.3       1 <0>        -0.0702
     15 C14        -4.9702    1.4060    1.3985 C.3       1 <0>        -0.1462
     16 C15        -5.9211    1.5675    2.5862 C.3       1 <0>        -0.0109
     17 N1         -6.7204    2.7875    2.4111 N.4       1 <0>        -0.5094
     18 C16        -7.6334    2.9426    3.5514 C.3       1 <0>         0.0489
     19 C17        -8.4534    4.1942    3.3718 C.ar      1 <0>        -0.1465
     20 C18        -7.9912    5.3998    3.8676 C.ar      1 <0>        -0.1155
     21 C19        -8.7404    6.5505    3.7049 C.ar      1 <0>        -0.0937
     22 C20        -9.9535    6.4993    3.0465 C.ar      1 <0>        -0.0815
     23 C21       -10.4203    5.2904    2.5471 C.ar      1 <0>         0.1831
     24 C22        -9.6626    4.1371    2.7076 C.ar      1 <0>        -0.1359
     25 N2        -11.6477    5.2350    1.8802 N.pl3     1 <0>        -0.6584
     26 C23       -12.0784    6.3156    1.1352 C.2       1 <0>         0.5028
     27 N3        -11.2952    7.3484    0.9691 N.2       1 <0>        -0.7335
     28 C24       -13.4186    6.3038    0.5291 C.2       1 <0>        -0.2462
     29 C25       -14.0325    7.2697   -0.2482 C.2       1 <0>        -0.0877
     30 C26       -15.3066    6.9720   -0.6771 C.2       1 <0>        -0.1781
     31 C27       -15.8604    5.7887   -0.3215 C.2       1 <0>        -0.2141
     32 S1        -14.6718    5.0379    0.5981 S.3       1 <0>         0.2048
     33 H1          1.1801    2.9523   -0.3392 H         1 <0>         0.0621
     34 H2         -0.3700    2.9377   -1.2140 H         1 <0>         0.0554
     35 H3         -0.3432    2.7256    0.5531 H         1 <0>         0.0524
     36 H4          0.8283    0.7845   -1.4905 H         1 <0>         0.0873
     37 H5          0.5517    0.6140    1.5445 H         1 <0>         0.0547
     38 H6          1.1625   -0.6782    0.4837 H         1 <0>         0.0553
     39 H7          2.0750    0.8407    0.6522 H         1 <0>         0.0625
     40 H8         -1.6219    1.0834    1.3332 H         1 <0>         0.1239
     41 H9         -4.5951   -1.1630   -0.7419 H         1 <0>         0.1235
     42 H10        -0.0802   -1.2370   -2.7512 H         1 <0>         0.3919
     43 H11        -2.3895   -1.6524   -3.7356 H         1 <0>         0.0873
     44 H12        -3.8572   -3.6349   -3.4824 H         1 <0>         0.0624
     45 H13        -2.6563   -3.5574   -2.1709 H         1 <0>         0.0554
     46 H14        -4.3407   -3.0703   -1.8650 H         1 <0>         0.0546
     47 H15        -4.1850    0.0511   -3.8875 H         1 <0>         0.0555
     48 H16        -4.7500   -1.5276   -4.4848 H         1 <0>         0.0620
     49 H17        -5.2335   -0.9631   -2.8674 H         1 <0>         0.0522
     50 H18        -4.8004   -0.7284    1.6358 H         1 <0>         0.0826
     51 H19        -3.5595    0.2088    2.5019 H         1 <0>         0.0829
     52 H20        -4.3076    2.2697    1.3435 H         1 <0>         0.0891
     53 H21        -5.5485    1.3325    0.4774 H         1 <0>         0.0886
     54 H22        -6.5838    0.7038    2.6411 H         1 <0>         0.1325
     55 H23        -5.3429    1.6410    3.5072 H         1 <0>         0.1332
     56 H24        -6.1070    3.5871    2.3602 H         1 <0>         0.4282
     57 H25        -8.2961    2.0789    3.6064 H         1 <0>         0.1365
     58 H26        -7.0552    3.0161    4.4725 H         1 <0>         0.1385
     59 H27        -7.0432    5.4425    4.3831 H         1 <0>         0.1299
     60 H28        -8.3768    7.4903    4.0935 H         1 <0>         0.1367
     61 H29       -10.5385    7.3983    2.9204 H         1 <0>         0.1515
     62 H30       -10.0208    3.1961    2.3168 H         1 <0>         0.1310
     63 H31       -12.1970    4.4378    1.9405 H         1 <0>         0.4182
     64 H32       -13.5435    8.1985   -0.5022 H         1 <0>         0.1444
     65 H33       -15.8564    7.6724   -1.2882 H         1 <0>         0.1431
     66 H34       -16.8403    5.4118   -0.5749 H         1 <0>         0.1930
     67 H35        -7.2557    2.7195    1.5585 H         1 <0>         0.4274
     68 H36       -11.5976    8.1072    0.4460 H         1 <0>         0.3569
@<TRIPOS>BOND
     1    1    2 1
     2    1   33 1
     3    1   34 1
     4    1   35 1
     5    2    3 1
     6    2    4 1
     7    2   36 1
     8    3   37 1
     9    3   38 1
    10    3   39 1
    11    4    9 ar
    12    4    5 ar
    13    5    6 ar
    14    5   40 1
    15    6    7 ar
    16    6   14 1
    17    7    8 ar
    18    7   41 1
    19    8    9 ar
    20    8   11 1
    21    9   10 1
    22   10   42 1
    23   11   12 1
    24   11   13 1
    25   11   43 1
    26   12   44 1
    27   12   45 1
    28   12   46 1
    29   13   47 1
    30   13   48 1
    31   13   49 1
    32   14   15 1
    33   14   50 1
    34   14   51 1
    35   15   16 1
    36   15   52 1
    37   15   53 1
    38   16   17 1
    39   16   54 1
    40   16   55 1
    41   17   18 1
    42   17   56 1
    43   17   67 1
    44   18   19 1
    45   18   57 1
    46   18   58 1
    47   19   24 ar
    48   19   20 ar
    49   20   21 ar
    50   20   59 1
    51   21   22 ar
    52   21   60 1
    53   22   23 ar
    54   22   61 1
    55   23   24 ar
    56   23   25 1
    57   24   62 1
    58   25   26 1
    59   25   63 1
    60   26   27 2
    61   26   28 1
    62   27   68 1
    63   28   32 1
    64   28   29 2
    65   29   30 1
    66   29   64 1
    67   30   31 2
    68   30   65 1
    69   31   32 1
    70   31   66 1
@<TRIPOS>MOLECULE
CHEMBL541300__2
   68    70     0     0     0
SMALL
USER_CHARGES

@<TRIPOS>ATOM
      1 C1         -0.7516   -0.5396    0.9415 C.3       1 <0>        -0.1409
      2 C2         -0.9588   -2.0172    1.2804 C.3       1 <0>        -0.0604
      3 C3         -0.2655   -2.3384    2.6059 C.3       1 <0>        -0.1450
      4 C4         -2.4335   -2.3025    1.4028 C.ar      1 <0>        -0.0900
      5 C5         -3.1920   -1.6307    2.3418 C.ar      1 <0>        -0.1002
      6 C6         -4.5451   -1.8920    2.4546 C.ar      1 <0>        -0.1038
      7 C7         -5.1424   -2.8260    1.6283 C.ar      1 <0>        -0.1002
      8 C8         -4.3882   -3.5005    0.6877 C.ar      1 <0>        -0.0900
      9 C9         -3.0316   -3.2359    0.5687 C.ar      1 <0>         0.1137
     10 O1         -2.2887   -3.8937   -0.3599 O.3       1 <0>        -0.4913
     11 C10        -5.0399   -4.5183   -0.2125 C.3       1 <0>        -0.0604
     12 C11        -5.6527   -5.6330    0.6377 C.3       1 <0>        -0.1451
     13 C12        -6.1382   -3.8423   -1.0356 C.3       1 <0>        -0.1410
     14 C13        -5.3700   -1.1581    3.4801 C.3       1 <0>        -0.0703
     15 C14        -5.9295    0.1246    2.8615 C.3       1 <0>        -0.1458
     16 C15        -6.7671    0.8698    3.9027 C.3       1 <0>        -0.0115
     17 N1         -7.3043    2.1013    3.3087 N.4       1 <0>        -0.5087
     18 C16        -8.1084    2.8167    4.3084 C.3       1 <0>         0.0452
     19 C17        -8.6595    4.0801    3.6991 C.ar      1 <0>        -0.1351
     20 C18        -7.9342    5.2555    3.7717 C.ar      1 <0>        -0.1120
     21 C19        -8.4361    6.4168    3.2140 C.ar      1 <0>        -0.0817
     22 C20        -9.6643    6.4066    2.5822 C.ar      1 <0>        -0.1132
     23 C21       -10.3951    5.2280    2.5071 C.ar      1 <0>         0.1689
     24 C22        -9.8854    4.0617    3.0639 C.ar      1 <0>        -0.1397
     25 N2        -11.6386    5.2141    1.8684 N.pl3     1 <0>        -0.7046
     26 C23       -12.6789    4.4757    2.3980 C.2       1 <0>         0.5044
     27 N3        -12.5385    3.8862    3.5558 N.2       1 <0>        -0.7323
     28 C24       -13.9447    4.3529    1.6588 C.2       1 <0>        -0.2008
     29 C25       -15.0973    3.6736    2.0105 C.2       1 <0>        -0.0622
     30 C26       -16.1317    3.7406    1.1041 C.2       1 <0>        -0.1836
     31 C27       -15.9598    4.4460   -0.0389 C.2       1 <0>        -0.2126
     32 S1        -14.3957    5.0473    0.0801 S.3       1 <0>         0.2015
     33 H1          0.3150   -0.3332    0.8530 H         1 <0>         0.0622
     34 H2         -1.2456   -0.3108   -0.0029 H         1 <0>         0.0553
     35 H3         -1.1767    0.0778    1.7328 H         1 <0>         0.0522
     36 H4         -0.5337   -2.6345    0.4891 H         1 <0>         0.0874
     37 H5         -0.6906   -1.7210    3.3973 H         1 <0>         0.0546
     38 H6         -0.4131   -3.3910    2.8474 H         1 <0>         0.0554
     39 H7          0.8011   -2.1320    2.5174 H         1 <0>         0.0626
     40 H8         -2.7277   -0.9010    2.9885 H         1 <0>         0.1237
     41 H9         -6.1993   -3.0286    1.7186 H         1 <0>         0.1236
     42 H10        -1.9015   -4.7202   -0.0403 H         1 <0>         0.3921
     43 H11        -4.2922   -4.9421   -0.8829 H         1 <0>         0.0874
     44 H12        -6.4005   -5.2093    1.3082 H         1 <0>         0.0546
     45 H13        -6.1241   -6.3692   -0.0134 H         1 <0>         0.0626
     46 H14        -4.8703   -6.1146    1.2242 H         1 <0>         0.0555
     47 H15        -5.7016   -3.0482   -1.6413 H         1 <0>         0.0554
     48 H16        -6.6096   -4.5785   -1.6867 H         1 <0>         0.0622
     49 H17        -6.8859   -3.4185   -0.3652 H         1 <0>         0.0522
     50 H18        -6.1935   -1.7934    3.8062 H         1 <0>         0.0830
     51 H19        -4.7447   -0.9057    4.3364 H         1 <0>         0.0831
     52 H20        -5.1060    0.7599    2.5353 H         1 <0>         0.0893
     53 H21        -6.5549   -0.1278    2.0051 H         1 <0>         0.0888
     54 H22        -7.5906    0.2345    4.2288 H         1 <0>         0.1336
     55 H23        -6.1417    1.1221    4.7590 H         1 <0>         0.1343
     56 H24        -6.5420    2.6894    3.0068 H         1 <0>         0.4281
     57 H25        -8.9319    2.1814    4.6346 H         1 <0>         0.1393
     58 H26        -7.4831    3.0691    5.1648 H         1 <0>         0.1423
     59 H27        -6.9737    5.2663    4.2655 H         1 <0>         0.1359
     60 H28        -7.8674    7.3331    3.2728 H         1 <0>         0.1430
     61 H29       -10.0562    7.3142    2.1474 H         1 <0>         0.1408
     62 H30       -10.4493    3.1425    3.0037 H         1 <0>         0.1384
     63 H31       -11.7708    5.7230    1.0533 H         1 <0>         0.4121
     64 H32       -11.7401    4.0400    4.0847 H         1 <0>         0.3413
     65 H33       -15.1805    3.1250    2.9370 H         1 <0>         0.1527
     66 H34       -17.0667    3.2376    1.3019 H         1 <0>         0.1429
     67 H35       -16.6678    4.5923   -0.8412 H         1 <0>         0.1932
     68 H36        -7.8831    1.8676    2.5160 H         1 <0>         0.4277
@<TRIPOS>BOND
     1    1    2 1
     2    1   33 1
     3    1   34 1
     4    1   35 1
     5    2    3 1
     6    2    4 1
     7    2   36 1
     8    3   37 1
     9    3   38 1
    10    3   39 1
    11    4    9 ar
    12    4    5 ar
    13    5    6 ar
    14    5   40 1
    15    6    7 ar
    16    6   14 1
    17    7    8 ar
    18    7   41 1
    19    8    9 ar
    20    8   11 1
    21    9   10 1
    22   10   42 1
    23   11   12 1
    24   11   13 1
    25   11   43 1
    26   12   44 1
    27   12   45 1
    28   12   46 1
    29   13   47 1
    30   13   48 1
    31   13   49 1
    32   14   15 1
    33   14   50 1
    34   14   51 1
    35   15   16 1
    36   15   52 1
    37   15   53 1
    38   16   17 1
    39   16   54 1
    40   16   55 1
    41   17   18 1
    42   17   56 1
    43   17   68 1
    44   18   19 1
    45   18   57 1
    46   18   58 1
    47   19   24 ar
    48   19   20 ar
    49   20   21 ar
    50   20   59 1
    51   21   22 ar
    52   21   60 1
    53   22   23 ar
    54   22   61 1
    55   23   24 ar
    56   23   25 1
    57   24   62 1
    58   25   26 1
    59   25   63 1
    60   26   27 2
    61   26   28 1
    62   27   64 1
    63   28   32 1
    64   28   29 2
    65   29   30 1
    66   29   65 1
    67   30   31 2
    68   30   66 1
    69   31   32 1
    70   31   67 1
@<TRIPOS>MOLECULE
CHEMBL541300__3
   69    71     0     0     0
SMALL
USER_CHARGES

@<TRIPOS>ATOM
      1 C1         -0.4286   -0.5209   -1.1302 C.3       1 <0>        -0.1404
      2 C2         -0.5957   -1.9940   -1.5082 C.3       1 <0>        -0.0619
      3 C3         -2.0851   -2.3371   -1.5772 C.3       1 <0>        -0.1454
      4 C4          0.0399   -2.2431   -2.8517 C.ar      1 <0>        -0.0882
      5 C5         -0.4044   -1.5560   -3.9647 C.ar      1 <0>        -0.0997
      6 C6          0.1783   -1.7840   -5.1977 C.ar      1 <0>        -0.1090
      7 C7          1.2068   -2.6999   -5.3200 C.ar      1 <0>        -0.1007
      8 C8          1.6548   -3.3896   -4.2101 C.ar      1 <0>        -0.0897
      9 C9          1.0756   -3.1584   -2.9708 C.ar      1 <0>         0.1172
     10 O1          1.5186   -3.8312   -1.8763 O.3       1 <0>        -0.4911
     11 C10         2.7759   -4.3878   -4.3442 C.3       1 <0>        -0.0617
     12 C11         2.3632   -5.4899   -5.3219 C.3       1 <0>        -0.1451
     13 C12         4.0272   -3.6817   -4.8701 C.3       1 <0>        -0.1397
     14 C13        -0.3088   -1.0335   -6.4103 C.3       1 <0>        -0.0690
     15 C14         0.4867    0.2649   -6.5600 C.3       1 <0>        -0.1462
     16 C15        -0.0079    1.0269   -7.7911 C.3       1 <0>        -0.0123
     17 N1          0.7559    2.2735   -7.9348 N.4       1 <0>        -0.5101
     18 C16         0.2811    3.0052   -9.1168 C.3       1 <0>         0.0402
     19 C17         1.0646    4.2840   -9.2643 C.ar      1 <0>        -0.1288
     20 C18         0.6210    5.4407   -8.6494 C.ar      1 <0>        -0.0750
     21 C19         1.3368    6.6162   -8.7822 C.ar      1 <0>        -0.0727
     22 C20         2.4981    6.6387   -9.5298 C.ar      1 <0>        -0.0772
     23 C21         2.9466    5.4788  -10.1481 C.ar      1 <0>         0.0975
     24 C22         2.2278    4.2983  -10.0083 C.ar      1 <0>        -0.1400
     25 N2          4.1215    5.4981  -10.9055 N.pl3     1 <0>        -0.6174
     26 C23         4.1942    4.7842  -12.0857 C.cat     1 <0>         0.6551
     27 N3          3.1306    4.1873  -12.5549 N.pl3     1 <0>        -0.7376
     28 C24         5.4689    4.6958  -12.8145 C.2       1 <0>        -0.3528
     29 C25         5.9401    3.6800  -13.6269 C.2       1 <0>        -0.0151
     30 C26         7.1851    3.8836  -14.1786 C.2       1 <0>        -0.1965
     31 C27         7.8486    5.0304  -13.8992 C.2       1 <0>        -0.1586
     32 S1          6.8054    5.8731  -12.8873 S.3       1 <0>         0.3219
     33 H1          0.6325   -0.2765   -1.0810 H         1 <0>         0.0549
     34 H2         -0.9110    0.1040   -1.8817 H         1 <0>         0.0511
     35 H3         -0.8883   -0.3408   -0.1584 H         1 <0>         0.0637
     36 H4         -0.1133   -2.6190   -0.7566 H         1 <0>         0.0888
     37 H5         -2.5675   -1.7122   -2.3288 H         1 <0>         0.0539
     38 H6         -2.2041   -3.3866   -1.8465 H         1 <0>         0.0562
     39 H7         -2.5448   -2.1570   -0.6054 H         1 <0>         0.0642
     40 H8         -1.2079   -0.8403   -3.8718 H         1 <0>         0.1237
     41 H9          1.6601   -2.8766   -6.2843 H         1 <0>         0.1221
     42 H10         1.0611   -4.6681   -1.7172 H         1 <0>         0.3946
     43 H11         2.9892   -4.8276   -3.3699 H         1 <0>         0.0890
     44 H12         3.1740   -6.2118   -5.4189 H         1 <0>         0.0636
     45 H13         1.4717   -5.9929   -4.9473 H         1 <0>         0.0566
     46 H14         2.1498   -5.0501   -6.2962 H         1 <0>         0.0532
     47 H15         4.3212   -2.8966   -4.1735 H         1 <0>         0.0551
     48 H16         4.8380   -4.4037   -4.9671 H         1 <0>         0.0630
     49 H17         3.8138   -3.2419   -5.8443 H         1 <0>         0.0499
     50 H18        -0.1698   -1.6492   -7.2989 H         1 <0>         0.0825
     51 H19        -1.3669   -0.7997   -6.2921 H         1 <0>         0.0840
     52 H20         0.3476    0.8807   -5.6714 H         1 <0>         0.0911
     53 H21         1.5447    0.0312   -6.6781 H         1 <0>         0.0887
     54 H22         0.1312    0.4111   -8.6797 H         1 <0>         0.1347
     55 H23        -1.0659    1.2607   -7.6729 H         1 <0>         0.1380
     56 H24         0.6272    2.8436   -7.1123 H         1 <0>         0.4317
     57 H25         0.4202    2.3894  -10.0054 H         1 <0>         0.1416
     58 H26        -0.7770    3.2389   -8.9987 H         1 <0>         0.1508
     59 H27        -0.2869    5.4259   -8.0646 H         1 <0>         0.1519
     60 H28         0.9875    7.5178   -8.3011 H         1 <0>         0.1596
     61 H29         3.0564    7.5573   -9.6336 H         1 <0>         0.1555
     62 H30         2.5760    3.3937  -10.4845 H         1 <0>         0.1418
     63 H31         4.8857    6.0129  -10.6022 H         1 <0>         0.4509
     64 H32         3.2005    3.6125  -13.3330 H         1 <0>         0.4505
     65 H33         5.3678    2.7838  -13.8161 H         1 <0>         0.1581
     66 H34         7.6263    3.1391  -14.8247 H         1 <0>         0.1627
     67 H35         8.8233    5.3356  -14.2503 H         1 <0>         0.2133
     68 H36         1.7354    2.0572   -8.0442 H         1 <0>         0.4267
     69 H37         2.2711    4.3192  -12.1249 H         1 <0>         0.4324
@<TRIPOS>BOND
     1    1    2 1
     2    1   33 1
     3    1   34 1
     4    1   35 1
     5    2    3 1
     6    2    4 1
     7    2   36 1
     8    3   37 1
     9    3   38 1
    10    3   39 1
    11    4    9 ar
    12    4    5 ar
    13    5    6 ar
    14    5   40 1
    15    6    7 ar
    16    6   14 1
    17    7    8 ar
    18    7   41 1
    19    8    9 ar
    20    8   11 1
    21    9   10 1
    22   10   42 1
    23   11   12 1
    24   11   13 1
    25   11   43 1
    26   12   44 1
    27   12   45 1
    28   12   46 1
    29   13   47 1
    30   13   48 1
    31   13   49 1
    32   14   15 1
    33   14   50 1
    34   14   51 1
    35   15   16 1
    36   15   52 1
    37   15   53 1
    38   16   17 1
    39   16   54 1
    40   16   55 1
    41   17   18 1
    42   17   56 1
    43   17   68 1
    44   18   19 1
    45   18   57 1
    46   18   58 1
    47   19   24 ar
    48   19   20 ar
    49   20   21 ar
    50   20   59 1
    51   21   22 ar
    52   21   60 1
    53   22   23 ar
    54   22   61 1
    55   23   24 ar
    56   23   25 1
    57   24   62 1
    58   25   26 1
    59   25   63 1
    60   26   27 2
    61   26   28 1
    62   27   64 1
    63   27   69 1
    64   28   32 1
    65   28   29 2
    66   29   30 1
    67   29   65 1
    68   30   31 2
    69   30   66 1
    70   31   32 1
    71   31   67 1
@<TRIPOS>MOLECULE
CHEMBL446171
   74    78     0     0     0
SMALL
USER_CHARGES

@<TRIPOS>ATOM
      1 C1          1.0206    2.3818   -5.4657 C.3       1 <0>        -0.1106
      2 C2          1.2262    1.0278   -4.8369 C.ar      1 <0>        -0.0772
      3 C3          0.6549   -0.0922   -5.4056 C.ar      1 <0>        -0.1030
      4 C4          0.8404   -1.3441   -4.8287 C.ar      1 <0>         0.1261
      5 C5          1.6000   -1.4652   -3.6782 C.ar      1 <0>        -0.1458
      6 C6          2.1755   -0.3413   -3.1101 C.ar      1 <0>        -0.0735
      7 C7          1.9946    0.9046   -3.6891 C.ar      1 <0>         0.0780
      8 O1          2.5652    2.0050   -3.1298 O.3       1 <0>        -0.4870
      9 C8          3.0059   -0.4743   -1.8596 C.3       1 <0>        -0.1139
     10 C9          1.8154   -2.8027   -3.0162 C.3       1 <0>        -0.0858
     11 C10         1.4898   -3.9256   -4.0040 C.3       1 <0>        -0.1405
     12 C11         0.1343   -3.6185   -4.6532 C.3       1 <0>         0.0741
     13 O2          0.2645   -2.4226   -5.4231 O.3       1 <0>        -0.2891
     14 C12        -0.2745   -4.7768   -5.5654 C.3       1 <0>        -0.1377
     15 C13        -0.9083   -3.4220   -3.5829 C.2       1 <0>         0.3530
     16 O3         -0.8126   -4.0088   -2.5318 O.2       1 <0>        -0.4285
     17 C14        -2.0703   -2.4933   -3.8243 C.3       1 <0>        -0.1300
     18 C15        -1.8457   -1.1864   -3.0611 C.3       1 <0>        -0.1108
     19 C16        -3.0254   -0.2435   -3.3062 C.3       1 <0>        -0.1034
     20 C17        -4.3162   -0.9040   -2.8178 C.3       1 <0>        -0.0591
     21 C18        -4.5408   -2.2109   -3.5810 C.3       1 <0>        -0.1069
     22 C19        -3.3610   -3.1538   -3.3359 C.3       1 <0>        -0.1097
     23 C20        -5.4782    0.0247   -3.0592 C.ar      1 <0>        -0.0450
     24 C21        -5.7812    0.4306   -4.3459 C.ar      1 <0>        -0.0838
     25 C22        -6.8454    1.2817   -4.5706 C.ar      1 <0>        -0.1443
     26 C23        -7.6117    1.7300   -3.5024 C.ar      1 <0>         0.0656
     27 C24        -7.3046    1.3204   -2.2112 C.ar      1 <0>        -0.0993
     28 C25        -6.2426    0.4647   -1.9940 C.ar      1 <0>        -0.0860
     29 N1         -8.6894    2.5919   -3.7263 N.pl3     1 <0>        -0.6054
     30 C26        -9.5429    2.3689   -4.7892 C.cat     1 <0>         0.6432
     31 N2         -9.4159    1.2887   -5.5136 N.pl3     1 <0>        -0.7344
     32 C27       -10.5948    3.3472   -5.1056 C.2       1 <0>        -0.3323
     33 C28       -11.1630    3.6513   -6.3298 C.2       1 <0>        -0.0246
     34 C29       -12.1375    4.6239   -6.3122 C.2       1 <0>        -0.1937
     35 C30       -12.4675    5.2029   -5.1336 C.2       1 <0>        -0.1728
     36 S1        -11.4750    4.4443   -4.0104 S.3       1 <0>         0.3084
     37 C31        -0.1742    0.0418   -6.6569 C.3       1 <0>        -0.1067
     38 H1          1.8099    2.5678   -6.1941 H         1 <0>         0.0760
     39 H2          0.0521    2.4071   -5.9652 H         1 <0>         0.0698
     40 H3          1.0510    3.1498   -4.6928 H         1 <0>         0.0684
     41 H4          2.0092    2.4452   -2.4723 H         1 <0>         0.3829
     42 H5          4.0472   -0.6470   -2.1316 H         1 <0>         0.0767
     43 H6          2.9305    0.4421   -1.2742 H         1 <0>         0.0704
     44 H7          2.6406   -1.3140   -1.2684 H         1 <0>         0.0680
     45 H8          2.8551   -2.8877   -2.7002 H         1 <0>         0.0897
     46 H9          1.1646   -2.8854   -2.1457 H         1 <0>         0.0839
     47 H10         2.2620   -3.9750   -4.7717 H         1 <0>         0.0883
     48 H11         1.4363   -4.8768   -3.4743 H         1 <0>         0.0945
     49 H12        -0.3542   -5.6913   -4.9778 H         1 <0>         0.0852
     50 H13        -1.2378   -4.5550   -6.0248 H         1 <0>         0.0731
     51 H14         0.4772   -4.9092   -6.3436 H         1 <0>         0.0844
     52 H15        -2.1511   -2.2821   -4.8906 H         1 <0>         0.0990
     53 H16        -1.7648   -1.3976   -1.9948 H         1 <0>         0.0691
     54 H17        -0.9261   -0.7159   -3.4090 H         1 <0>         0.0779
     55 H18        -2.8654    0.6876   -2.7624 H         1 <0>         0.0699
     56 H19        -3.1063   -0.0323   -4.3725 H         1 <0>         0.0691
     57 H20        -4.2353   -1.1152   -1.7515 H         1 <0>         0.0890
     58 H21        -5.4604   -2.6814   -3.2331 H         1 <0>         0.0705
     59 H22        -4.6216   -1.9996   -4.6473 H         1 <0>         0.0680
     60 H23        -3.5210   -4.0848   -3.8797 H         1 <0>         0.0701
     61 H24        -3.2802   -3.3650   -2.2697 H         1 <0>         0.0764
     62 H25        -5.1847    0.0820   -5.1760 H         1 <0>         0.1430
     63 H26        -7.0813    1.5986   -5.5758 H         1 <0>         0.1331
     64 H27        -7.8985    1.6671   -1.3784 H         1 <0>         0.1414
     65 H28        -6.0062    0.1420   -0.9908 H         1 <0>         0.1438
     66 H29        -8.8378    3.3466   -3.1352 H         1 <0>         0.4441
     67 H30        -9.9382    1.1843   -6.3243 H         1 <0>         0.4462
     68 H31       -10.8610    3.1574   -7.2415 H         1 <0>         0.1580
     69 H32       -12.6314    4.9209   -7.2256 H         1 <0>         0.1587
     70 H33       -13.2037    5.9728   -4.9556 H         1 <0>         0.2088
     71 H34         0.4679   -0.0646   -7.5312 H         1 <0>         0.0712
     72 H35        -0.9389   -0.7348   -6.6710 H         1 <0>         0.0689
     73 H36        -0.6512    1.0217   -6.6735 H         1 <0>         0.0678
     74 H37        -8.7993    0.5915   -5.2407 H         1 <0>         0.4370
@<TRIPOS>BOND
     1    1    2 1
     2    1   38 1
     3    1   39 1
     4    1   40 1
     5    2    7 ar
     6    2    3 ar
     7    3    4 ar
     8    3   37 1
     9    4   13 1
    10    4    5 ar
    11    5    6 ar
    12    5   10 1
    13    6    7 ar
    14    6    9 1
    15    7    8 1
    16    8   41 1
    17    9   42 1
    18    9   43 1
    19    9   44 1
    20   10   11 1
    21   10   45 1
    22   10   46 1
    23   11   12 1
    24   11   47 1
    25   11   48 1
    26   12   13 1
    27   12   14 1
    28   12   15 1
    29   14   49 1
    30   14   50 1
    31   14   51 1
    32   15   16 2
    33   15   17 1
    34   17   22 1
    35   17   18 1
    36   17   52 1
    37   18   19 1
    38   18   53 1
    39   18   54 1
    40   19   20 1
    41   19   55 1
    42   19   56 1
    43   20   21 1
    44   20   23 1
    45   20   57 1
    46   21   22 1
    47   21   58 1
    48   21   59 1
    49   22   60 1
    50   22   61 1
    51   23   28 ar
    52   23   24 ar
    53   24   25 ar
    54   24   62 1
    55   25   26 ar
    56   25   63 1
    57   26   27 ar
    58   26   29 1
    59   27   28 ar
    60   27   64 1
    61   28   65 1
    62   29   30 1
    63   29   66 1
    64   30   31 2
    65   30   32 1
    66   31   67 1
    67   31   74 1
    68   32   36 1
    69   32   33 2
    70   33   34 1
    71   33   68 1
    72   34   35 2
    73   34   69 1
    74   35   36 1
    75   35   70 1
    76   37   71 1
    77   37   72 1
    78   37   73 1
@<TRIPOS>MOLECULE
CHEMBL446171__1
   73    77     0     0     0
SMALL
USER_CHARGES

@<TRIPOS>ATOM
      1 C1          1.0202    2.3792   -5.4626 C.3       1 <0>        -0.1111
      2 C2          1.2254    1.0253   -4.8335 C.ar      1 <0>        -0.0762
      3 C3          0.6541   -0.0947   -5.4022 C.ar      1 <0>        -0.1000
      4 C4          0.8393   -1.3465   -4.8251 C.ar      1 <0>         0.1276
      5 C5          1.5985   -1.4676   -3.6744 C.ar      1 <0>        -0.1466
      6 C6          2.1740   -0.3437   -3.1063 C.ar      1 <0>        -0.0756
      7 C7          1.9935    0.9022   -3.6854 C.ar      1 <0>         0.0770
      8 O1          2.5640    2.0026   -3.1262 O.3       1 <0>        -0.4885
      9 C8          3.0040   -0.4767   -1.8555 C.3       1 <0>        -0.1120
     10 C9          1.8135   -2.8050   -3.0122 C.3       1 <0>        -0.0848
     11 C10         1.4880   -3.9281   -3.9999 C.3       1 <0>        -0.1392
     12 C11         0.1327   -3.6208   -4.6496 C.3       1 <0>         0.0733
     13 O2          0.2633   -2.4250   -5.4196 O.3       1 <0>        -0.2884
     14 C12        -0.2760   -4.7791   -5.5618 C.3       1 <0>        -0.1375
     15 C13        -0.9101   -3.4240   -3.5796 C.2       1 <0>         0.3542
     16 O3         -0.8149   -4.0108   -2.5285 O.2       1 <0>        -0.4321
     17 C14        -2.0718   -2.4950   -3.8214 C.3       1 <0>        -0.1298
     18 C15        -1.8473   -1.1883   -3.0580 C.3       1 <0>        -0.1080
     19 C16        -3.0268   -0.2451   -3.3035 C.3       1 <0>        -0.1033
     20 C17        -4.3179   -0.9054   -2.8157 C.3       1 <0>        -0.0467
     21 C18        -4.5424   -2.2122   -3.5791 C.3       1 <0>        -0.1082
     22 C19        -3.3629   -3.1553   -3.3336 C.3       1 <0>        -0.1073
     23 C20        -5.4796    0.0236   -3.0575 C.ar      1 <0>        -0.0883
     24 C21        -5.7820    0.4297   -4.3443 C.ar      1 <0>        -0.0847
     25 C22        -6.8459    1.2809   -4.5694 C.ar      1 <0>        -0.1495
     26 C23        -7.6126    1.7293   -3.5015 C.ar      1 <0>         0.1480
     27 C24        -7.3061    1.3195   -2.2101 C.ar      1 <0>        -0.1393
     28 C25        -6.2443    0.4636   -1.9926 C.ar      1 <0>        -0.0894
     29 N1         -8.6900    2.5915   -3.7257 N.pl3     1 <0>        -0.7052
     30 C26        -9.5429    2.3689   -4.7892 C.2       1 <0>         0.4945
     31 N2         -9.4159    1.2887   -5.5136 N.2       1 <0>        -0.7322
     32 C27       -10.5942    3.3477   -5.1062 C.2       1 <0>        -0.1768
     33 C28       -11.5435    3.3126   -6.1119 C.2       1 <0>        -0.0763
     34 C29       -12.4049    4.3858   -6.1595 C.2       1 <0>        -0.1788
     35 C30       -12.2718    5.3768   -5.2465 C.2       1 <0>        -0.2271
     36 S1        -10.9818    4.8842   -4.2898 S.3       1 <0>         0.1949
     37 C31        -0.1746    0.0393   -6.6538 C.3       1 <0>        -0.1085
     38 H1          1.8098    2.5650   -6.1907 H         1 <0>         0.0746
     39 H2          0.0518    2.4047   -5.9623 H         1 <0>         0.0720
     40 H3          1.0505    3.1473   -4.6898 H         1 <0>         0.0683
     41 H4          2.0080    2.4429   -2.4689 H         1 <0>         0.3829
     42 H5          4.0453   -0.6496   -2.1271 H         1 <0>         0.0745
     43 H6          2.9286    0.4398   -1.2703 H         1 <0>         0.0696
     44 H7          2.6384   -1.3163   -1.2644 H         1 <0>         0.0673
     45 H8          2.8531   -2.8902   -2.6959 H         1 <0>         0.0878
     46 H9          1.1624   -2.8875   -2.1419 H         1 <0>         0.0841
     47 H10         2.2605   -3.9776   -4.7674 H         1 <0>         0.0865
     48 H11         1.4342   -4.8791   -3.4702 H         1 <0>         0.0932
     49 H12        -0.3560   -5.6936   -4.9741 H         1 <0>         0.0842
     50 H13        -1.2391   -4.5572   -6.0215 H         1 <0>         0.0747
     51 H14         0.4760   -4.9117   -6.3397 H         1 <0>         0.0828
     52 H15        -2.1522   -2.2837   -4.8877 H         1 <0>         0.0984
     53 H16        -1.7669   -1.3996   -1.9917 H         1 <0>         0.0661
     54 H17        -0.9275   -0.7179   -3.4055 H         1 <0>         0.0730
     55 H18        -2.8668    0.6859   -2.7596 H         1 <0>         0.0675
     56 H19        -3.1071   -0.0338   -4.3698 H         1 <0>         0.0679
     57 H20        -4.2375   -1.1167   -1.7494 H         1 <0>         0.0795
     58 H21        -5.4622   -2.6826   -3.2316 H         1 <0>         0.0693
     59 H22        -4.6228   -2.0008   -4.6454 H         1 <0>         0.0675
     60 H23        -3.5229   -4.0863   -3.8775 H         1 <0>         0.0659
     61 H24        -3.2826   -3.3667   -2.2674 H         1 <0>         0.0733
     62 H25        -5.1852    0.0810   -5.1742 H         1 <0>         0.1271
     63 H26        -7.0813    1.5980   -5.5746 H         1 <0>         0.1276
     64 H27        -7.9002    1.6663   -1.3776 H         1 <0>         0.1266
     65 H28        -6.0084    0.1408   -0.9894 H         1 <0>         0.1270
     66 H29        -8.8386    3.3460   -3.1345 H         1 <0>         0.4042
     67 H30       -11.6049    2.4955   -6.8154 H         1 <0>         0.1522
     68 H31       -13.1756    4.4365   -6.9145 H         1 <0>         0.1388
     69 H32       -12.8629    6.2757   -5.1519 H         1 <0>         0.1891
     70 H33         0.4678   -0.0673   -7.5280 H         1 <0>         0.0702
     71 H34        -0.9394   -0.7372   -6.6680 H         1 <0>         0.0709
     72 H35        -0.6514    1.0193   -6.6707 H         1 <0>         0.0699
     73 H36        -8.7993    0.5915   -5.2407 H         1 <0>         0.3473
@<TRIPOS>BOND
     1    1    2 1
     2    1   38 1
     3    1   39 1
     4    1   40 1
     5    2    7 ar
     6    2    3 ar
     7    3    4 ar
     8    3   37 1
     9    4   13 1
    10    4    5 ar
    11    5    6 ar
    12    5   10 1
    13    6    7 ar
    14    6    9 1
    15    7    8 1
    16    8   41 1
    17    9   42 1
    18    9   43 1
    19    9   44 1
    20   10   11 1
    21   10   45 1
    22   10   46 1
    23   11   12 1
    24   11   47 1
    25   11   48 1
    26   12   13 1
    27   12   14 1
    28   12   15 1
    29   14   49 1
    30   14   50 1
    31   14   51 1
    32   15   16 2
    33   15   17 1
    34   17   22 1
    35   17   18 1
    36   17   52 1
    37   18   19 1
    38   18   53 1
    39   18   54 1
    40   19   20 1
    41   19   55 1
    42   19   56 1
    43   20   21 1
    44   20   23 1
    45   20   57 1
    46   21   22 1
    47   21   58 1
    48   21   59 1
    49   22   60 1
    50   22   61 1
    51   23   28 ar
    52   23   24 ar
    53   24   25 ar
    54   24   62 1
    55   25   26 ar
    56   25   63 1
    57   26   27 ar
    58   26   29 1
    59   27   28 ar
    60   27   64 1
    61   28   65 1
    62   29   30 1
    63   29   66 1
    64   30   31 2
    65   30   32 1
    66   31   73 1
    67   32   36 1
    68   32   33 2
    69   33   34 1
    70   33   67 1
    71   34   35 2
    72   34   68 1
    73   35   36 1
    74   35   69 1
    75   37   70 1
    76   37   71 1
    77   37   72 1
@<TRIPOS>MOLECULE
CHEMBL446171__2
   73    77     0     0     0
SMALL
USER_CHARGES

@<TRIPOS>ATOM
      1 C1          0.9788    3.1163   -1.8840 C.3       1 <0>        -0.1110
      2 C2          1.1286    1.6454   -1.5925 C.ar      1 <0>        -0.0761
      3 C3          0.9119    0.7175   -2.5905 C.ar      1 <0>        -0.0999
      4 C4          1.0476   -0.6413   -2.3267 C.ar      1 <0>         0.1283
      5 C5          1.3998   -1.0632   -1.0565 C.ar      1 <0>        -0.1468
      6 C6          1.6201   -0.1313   -0.0565 C.ar      1 <0>        -0.0755
      7 C7          1.4902    1.2225   -0.3222 C.ar      1 <0>         0.0768
      8 O1          1.7116    2.1343    0.6621 O.3       1 <0>        -0.4887
      9 C8          2.0075   -0.5910    1.3254 C.3       1 <0>        -0.1118
     10 C9          1.5460   -2.5274   -0.7274 C.3       1 <0>        -0.0848
     11 C10         1.6966   -3.3340   -2.0195 C.3       1 <0>        -0.1391
     12 C11         0.6001   -2.8895   -2.9958 C.3       1 <0>         0.0733
     13 O2          0.8300   -1.5223   -3.3390 O.3       1 <0>        -0.2882
     14 C12         0.6523   -3.7533   -4.2575 C.3       1 <0>        -0.1375
     15 C13        -0.7498   -3.0281   -2.3403 C.2       1 <0>         0.3538
     16 O3         -0.9265   -3.8716   -1.4944 O.2       1 <0>        -0.4324
     17 C14        -1.8792   -2.1141   -2.7405 C.3       1 <0>        -0.1288
     18 C15        -2.0282   -1.0019   -1.7005 C.3       1 <0>        -0.1098
     19 C16        -3.1748   -0.0740   -2.1068 C.3       1 <0>        -0.1025
     20 C17        -4.4757   -0.8754   -2.1865 C.3       1 <0>        -0.0446
     21 C18        -4.3267   -1.9876   -3.2265 C.3       1 <0>        -0.1075
     22 C19        -3.1801   -2.9155   -2.8202 C.3       1 <0>        -0.1074
     23 C20        -5.6051    0.0386   -2.5867 C.ar      1 <0>        -0.0950
     24 C21        -5.5552    0.7084   -3.7955 C.ar      1 <0>        -0.0948
     25 C22        -6.5885    1.5467   -4.1653 C.ar      1 <0>        -0.1089
     26 C23        -7.6787    1.7167   -3.3215 C.ar      1 <0>         0.1631
     27 C24        -7.7257    1.0424   -2.1081 C.ar      1 <0>        -0.1510
     28 C25        -6.6916    0.2012   -1.7469 C.ar      1 <0>        -0.0965
     29 N1         -8.7262    2.5650   -3.6926 N.pl3     1 <0>        -0.6571
     30 C26        -9.0714    2.6946   -5.0238 C.2       1 <0>         0.4983
     31 N2         -8.4930    1.9454   -5.9247 N.2       1 <0>        -0.7298
     32 C27       -10.0902    3.6760   -5.4272 C.2       1 <0>        -0.2271
     33 C28       -10.5786    3.9565   -6.6908 C.2       1 <0>        -0.1007
     34 C29       -11.5407    4.9393   -6.7561 C.2       1 <0>        -0.1753
     35 C30       -11.9354    5.5500   -5.6139 C.2       1 <0>        -0.2272
     36 S1        -11.0227    4.8083   -4.4142 S.3       1 <0>         0.2034
     37 C31         0.5259    1.1784   -3.9724 C.3       1 <0>        -0.1086
     38 H1          1.9341    3.5192   -2.2204 H         1 <0>         0.0743
     39 H2          0.2301    3.2577   -2.6635 H         1 <0>         0.0723
     40 H3          0.6638    3.6358   -0.9791 H         1 <0>         0.0683
     41 H4          0.9234    2.3576    1.1759 H         1 <0>         0.3829
     42 H5          3.0934   -0.6547    1.3961 H         1 <0>         0.0742
     43 H6          1.6366    0.1212    2.0625 H         1 <0>         0.0695
     44 H7          1.5728   -1.5720    1.5172 H         1 <0>         0.0673
     45 H8          2.4284   -2.6727   -0.1042 H         1 <0>         0.0874
     46 H9          0.6620   -2.8679   -0.1882 H         1 <0>         0.0848
     47 H10         2.6769   -3.1462   -2.4576 H         1 <0>         0.0861
     48 H11         1.5876   -4.3969   -1.8038 H         1 <0>         0.0929
     49 H12         0.4955   -4.7981   -3.9892 H         1 <0>         0.0839
     50 H13        -0.1281   -3.4346   -4.9486 H         1 <0>         0.0749
     51 H14         1.6266   -3.6427   -4.7335 H         1 <0>         0.0825
     52 H15        -1.6631   -1.6744   -3.7142 H         1 <0>         0.0979
     53 H16        -2.2443   -1.4416   -0.7268 H         1 <0>         0.0644
     54 H17        -1.1014   -0.4310   -1.6437 H         1 <0>         0.0746
     55 H18        -3.2810    0.7184   -1.3658 H         1 <0>         0.0667
     56 H19        -2.9588    0.3657   -3.0805 H         1 <0>         0.0676
     57 H20        -4.6918   -1.3151   -1.2128 H         1 <0>         0.0764
     58 H21        -5.2534   -2.5585   -3.2833 H         1 <0>         0.0683
     59 H22        -4.1106   -1.5479   -4.2002 H         1 <0>         0.0670
     60 H23        -3.0739   -3.7079   -3.5612 H         1 <0>         0.0644
     61 H24        -3.3961   -3.3552   -1.8465 H         1 <0>         0.0726
     62 H25        -4.7071    0.5761   -4.4509 H         1 <0>         0.1210
     63 H26        -6.5488    2.0699   -5.1093 H         1 <0>         0.1378
     64 H27        -8.5719    1.1724   -1.4497 H         1 <0>         0.1212
     65 H28        -6.7297   -0.3271   -0.8057 H         1 <0>         0.1218
     66 H29        -9.2106    3.0625   -3.0153 H         1 <0>         0.4129
     67 H30        -8.7354    2.0365   -6.8595 H         1 <0>         0.3487
     68 H31       -10.2272    3.4376   -7.5704 H         1 <0>         0.1431
     69 H32       -11.9741    5.2194   -7.7048 H         1 <0>         0.1388
     70 H33       -12.6719    6.3316   -5.4996 H         1 <0>         0.1894
     71 H34         1.4257    1.3384   -4.5666 H         1 <0>         0.0698
     72 H35        -0.0938    0.4189   -4.4489 H         1 <0>         0.0714
     73 H36        -0.0331    2.1114   -3.9013 H         1 <0>         0.0702
@<TRIPOS>BOND
     1    1    2 1
     2    1   38 1
     3    1   39 1
     4    1   40 1
     5    2    7 ar
     6    2    3 ar
     7    3    4 ar
     8    3   37 1
     9    4   13 1
    10    4    5 ar
    11    5    6 ar
    12    5   10 1
    13    6    7 ar
    14    6    9 1
    15    7    8 1
    16    8   41 1
    17    9   42 1
    18    9   43 1
    19    9   44 1
    20   10   11 1
    21   10   45 1
    22   10   46 1
    23   11   12 1
    24   11   47 1
    25   11   48 1
    26   12   13 1
    27   12   14 1
    28   12   15 1
    29   14   49 1
    30   14   50 1
    31   14   51 1
    32   15   16 2
    33   15   17 1
    34   17   22 1
    35   17   18 1
    36   17   52 1
    37   18   19 1
    38   18   53 1
    39   18   54 1
    40   19   20 1
    41   19   55 1
    42   19   56 1
    43   20   21 1
    44   20   23 1
    45   20   57 1
    46   21   22 1
    47   21   58 1
    48   21   59 1
    49   22   60 1
    50   22   61 1
    51   23   28 ar
    52   23   24 ar
    53   24   25 ar
    54   24   62 1
    55   25   26 ar
    56   25   63 1
    57   26   27 ar
    58   26   29 1
    59   27   28 ar
    60   27   64 1
    61   28   65 1
    62   29   30 1
    63   29   66 1
    64   30   31 2
    65   30   32 1
    66   31   67 1
    67   32   36 1
    68   32   33 2
    69   33   34 1
    70   33   68 1
    71   34   35 2
    72   34   69 1
    73   35   36 1
    74   35   70 1
    75   37   71 1
    76   37   72 1
    77   37   73 1
@<TRIPOS>MOLECULE
CHEMBL512136
   58    60     0     0     0
SMALL
USER_CHARGES

@<TRIPOS>ATOM
      1 C1         -0.0184    1.5028    0.0103 C.3       1 <0>        -0.1482
      2 C2          0.0021   -0.0041    0.0020 C.ar      1 <0>         0.0835
      3 C3          0.0062   -0.7075   -1.1955 C.ar      1 <0>        -0.1567
      4 C4          0.0255   -2.0874   -1.1689 C.ar      1 <0>         0.1558
      5 N1          0.0401   -2.7422   -0.0232 N.ar      1 <0>        -0.5141
      6 C5          0.0364   -2.1079    1.1389 C.ar      1 <0>         0.4601
      7 C6          0.0230   -0.7174    1.1866 C.ar      1 <0>        -0.2021
      8 N2          0.0518   -2.8376    2.3220 N.pl3     1 <0>        -0.8178
      9 C7          0.0295   -2.8562   -2.4651 C.3       1 <0>        -0.0727
     10 C8          1.4659   -2.9882   -2.9753 C.3       1 <0>        -0.1041
     11 H1          1.9326   -2.0060   -3.0489 H         1 <0>         0.1276
     12 C9          2.2854   -3.9024   -2.0394 C.3       1 <0>        -0.0156
     13 N3          3.1730   -4.6709   -2.9497 N.4       1 <0>        -0.5123
     14 C10         2.3142   -4.9797   -4.1219 C.3       1 <0>        -0.0425
     15 C11         1.4846   -3.6945   -4.3466 C.3       1 <0>         0.0738
     16 H2          1.9621   -3.0596   -5.0929 H         1 <0>         0.1299
     17 N4          0.1178   -4.0349   -4.7638 N.3       1 <0>        -0.6606
     18 C12         0.0255   -4.1438   -6.2259 C.3       1 <0>         0.0550
     19 C13        -1.4093   -4.4986   -6.6212 C.3       1 <0>         0.0594
     20 O1         -2.2810   -3.4232   -6.2664 O.3       1 <0>        -0.3783
     21 C14        -3.6525   -3.6543   -6.5945 C.3       1 <0>         0.0662
     22 C15        -4.4887   -2.4447   -6.1721 C.3       1 <0>        -0.0712
     23 C16        -5.9350   -2.6883   -6.5181 C.ar      1 <0>        -0.0658
     24 C17        -6.4230   -2.3092   -7.7549 C.ar      1 <0>        -0.1244
     25 C18        -7.7494   -2.5320   -8.0737 C.ar      1 <0>        -0.0831
     26 C19        -8.5896   -3.1338   -7.1559 C.ar      1 <0>        -0.1498
     27 C20        -8.1021   -3.5139   -5.9172 C.ar      1 <0>         0.1026
     28 C21        -6.7716   -3.2957   -5.6013 C.ar      1 <0>        -0.1524
     29 F1         -8.9226   -4.1018   -5.0192 F         1 <0>        -0.1364
     30 H3          1.0042    1.8801    0.0026 H         1 <0>         0.1102
     31 H4         -0.5455    1.8639   -0.8728 H         1 <0>         0.0995
     32 H5         -0.5286    1.8543    0.9071 H         1 <0>         0.0981
     33 H6         -0.0061   -0.1802   -2.1379 H         1 <0>         0.1825
     34 H7          0.0246   -0.2022    2.1358 H         1 <0>         0.1828
     35 H8          0.0651   -3.8071    2.2937 H         1 <0>         0.4212
     36 H9          0.0491   -2.3773    3.1758 H         1 <0>         0.4448
     37 H10        -0.3902   -3.8485   -2.3002 H         1 <0>         0.1021
     38 H11        -0.5712   -2.3258   -3.2040 H         1 <0>         0.1557
     39 H12         2.8775   -3.3044   -1.3466 H         1 <0>         0.1392
     40 H13         1.6257   -4.5766   -1.4932 H         1 <0>         0.1256
     41 H14         3.9631   -4.1092   -3.2294 H         1 <0>         0.4405
     42 H15         2.9279   -5.1928   -4.9972 H         1 <0>         0.1467
     43 H16         1.6589   -5.8225   -3.9016 H         1 <0>         0.1364
     44 H17        -0.1956   -4.8838   -4.3175 H         1 <0>         0.3495
     45 H18         0.3025   -3.1921   -6.6793 H         1 <0>         0.0977
     46 H19         0.7021   -4.9235   -6.5756 H         1 <0>         0.0583
     47 H20        -1.4588   -4.6665   -7.6971 H         1 <0>         0.0662
     48 H21        -1.7172   -5.4037   -6.0977 H         1 <0>         0.0505
     49 H22        -3.7484   -3.8047   -7.6698 H         1 <0>         0.0562
     50 H23        -4.0069   -4.5419   -6.0704 H         1 <0>         0.0518
     51 H24        -4.3927   -2.2943   -5.0968 H         1 <0>         0.0792
     52 H25        -4.1343   -1.5571   -6.6961 H         1 <0>         0.0860
     53 H26        -5.7674   -1.8382   -8.4724 H         1 <0>         0.1314
     54 H27        -8.1295   -2.2354   -9.0401 H         1 <0>         0.1386
     55 H28        -9.6261   -3.3072   -7.4049 H         1 <0>         0.1402
     56 H29        -6.3891   -3.5957   -4.6369 H         1 <0>         0.1317
     57 H30         3.4827   -5.5220   -2.5052 H         1 <0>         0.4392
     58 H31         0.0536   -3.7120   -0.0328 H         1 <0>         0.4325
@<TRIPOS>BOND
     1    1    2 1
     2    1   30 1
     3    1   31 1
     4    1   32 1
     5    2    7 ar
     6    2    3 ar
     7    3    4 ar
     8    3   33 1
     9    4    5 ar
    10    4    9 1
    11    5    6 ar
    12    5   58 1
    13    6    7 ar
    14    6    8 1
    15    7   34 1
    16    8   35 1
    17    8   36 1
    18    9   10 1
    19    9   37 1
    20    9   38 1
    21   10   11 1
    22   10   15 1
    23   10   12 1
    24   12   13 1
    25   12   39 1
    26   12   40 1
    27   13   14 1
    28   13   41 1
    29   13   57 1
    30   14   15 1
    31   14   42 1
    32   14   43 1
    33   15   16 1
    34   15   17 1
    35   17   18 1
    36   17   44 1
    37   18   19 1
    38   18   45 1
    39   18   46 1
    40   19   20 1
    41   19   47 1
    42   19   48 1
    43   20   21 1
    44   21   22 1
    45   21   49 1
    46   21   50 1
    47   22   23 1
    48   22   51 1
    49   22   52 1
    50   23   28 ar
    51   23   24 ar
    52   24   25 ar
    53   24   53 1
    54   25   26 ar
    55   25   54 1
    56   26   27 ar
    57   26   55 1
    58   27   28 ar
    59   27   29 1
    60   28   56 1
@<TRIPOS>MOLECULE
CHEMBL354788
   28    30     0     0     0
SMALL
USER_CHARGES

@<TRIPOS>ATOM
      1 C1         -0.0162    1.3409    0.0094 C.2       1 <0>        -0.2156
      2 C2          1.3313    1.7689   -0.0012 C.2       1 <0>        -0.1616
      3 C3          2.0923    0.6599   -0.0144 C.2       1 <0>        -0.1021
      4 O1          1.2819   -0.4111   -0.0124 O.3       1 <0>        -0.1531
      5 C4          0.0021   -0.0041    0.0020 C.2       1 <0>         0.0034
      6 C5          3.5989    0.6249   -0.0294 C.3       1 <0>         0.4680
      7 N1          4.0627   -0.6019    0.6315 N.pl3     1 <0>        -0.7274
      8 C6          4.0314   -0.6484    2.0251 C.ar      1 <0>         0.2501
      9 C7          3.8575   -1.8317    2.7212 C.ar      1 <0>         0.0566
     10 C8          3.8308   -1.8135    4.1054 C.ar      1 <0>        -0.0233
     11 C9          3.9761   -0.6219    4.7959 C.ar      1 <0>        -0.1503
     12 C10         4.1516    0.5685    4.1135 C.ar      1 <0>         0.1880
     13 C11         4.1828    0.5625    2.7208 C.ar      1 <0>        -0.2178
     14 C12         4.3776    1.7989    1.9385 C.cat     1 <0>         0.6092
     15 N2          4.1164    1.8044    0.6613 N.pl3     1 <0>        -0.6326
     16 N3          4.8345    2.9435    2.5561 N.pl3     1 <0>        -0.7778
     17 F1          4.2916    1.7281    4.7925 F         1 <0>        -0.1106
     18 F2          3.7143   -2.9978    2.0541 F         1 <0>        -0.1102
     19 H1         -0.8920    1.9726    0.0252 H         1 <0>         0.1610
     20 H2          1.6822    2.7903    0.0004 H         1 <0>         0.1501
     21 H3         -0.8653   -0.6475    0.0072 H         1 <0>         0.2170
     22 H4          3.9491    0.6292   -1.0616 H         1 <0>         0.1706
     23 H5          4.3818   -1.3577    0.1139 H         1 <0>         0.4426
     24 H6          3.6952   -2.7357    4.6509 H         1 <0>         0.1744
     25 H7          3.9519   -0.6220    5.8756 H         1 <0>         0.1731
     26 H8          5.0285    2.9374    3.5065 H         1 <0>         0.4442
     27 H9          4.9618    3.7551    2.0404 H         1 <0>         0.4323
     28 H10         4.2703    2.6165    0.1536 H         1 <0>         0.4418
@<TRIPOS>BOND
     1    1    5 2
     2    1    2 1
     3    1   19 1
     4    2    3 2
     5    2   20 1
     6    3    4 1
     7    3    6 1
     8    4    5 1
     9    5   21 1
    10    6   15 1
    11    6    7 1
    12    6   22 1
    13    7    8 1
    14    7   23 1
    15    8   13 ar
    16    8    9 ar
    17    9   10 ar
    18    9   18 1
    19   10   11 ar
    20   10   24 1
    21   11   12 ar
    22   11   25 1
    23   12   13 ar
    24   12   17 1
    25   13   14 1
    26   14   15 2
    27   14   16 1
    28   15   28 1
    29   16   26 1
    30   16   27 1
@<TRIPOS>MOLECULE
CHEMBL354788__1
   28    30     0     0     0
SMALL
USER_CHARGES

@<TRIPOS>ATOM
      1 C1         -0.0162    1.3409    0.0094 C.2       1 <0>        -0.2156
      2 C2          1.3313    1.7689   -0.0012 C.2       1 <0>        -0.1616
      3 C3          2.0923    0.6599   -0.0144 C.2       1 <0>        -0.1020
      4 O1          1.2819   -0.4111   -0.0124 O.3       1 <0>        -0.1531
      5 C4          0.0021   -0.0041    0.0020 C.2       1 <0>         0.0034
      6 C5          3.5989    0.6249   -0.0294 C.3       1 <0>         0.4680
      7 N1          4.0495   -0.5950   -0.7119 N.pl3     1 <0>        -0.7274
      8 C6          3.9908   -0.6271   -2.1050 C.ar      1 <0>         0.2501
      9 C7          3.8031   -1.8032   -2.8098 C.ar      1 <0>         0.0566
     10 C8          3.7491   -1.7706   -4.1930 C.ar      1 <0>        -0.0233
     11 C9          3.8808   -0.5720   -4.8738 C.ar      1 <0>        -0.1503
     12 C10         4.0698    0.6114   -4.1828 C.ar      1 <0>         0.1880
     13 C11         4.1285    0.5910   -2.7910 C.ar      1 <0>        -0.2178
     14 C12         4.3388    1.8193   -2.0001 C.cat     1 <0>         0.6091
     15 N2          4.1028    1.8115   -0.7179 N.pl3     1 <0>        -0.6327
     16 N3          4.7827    2.9705   -2.6148 N.pl3     1 <0>        -0.7778
     17 F1          4.1974    1.7778   -4.8524 F         1 <0>        -0.1105
     18 F2          3.6737   -2.9762   -2.1521 F         1 <0>        -0.1102
     19 H1         -0.8920    1.9726    0.0252 H         1 <0>         0.1610
     20 H2          1.6822    2.7903    0.0004 H         1 <0>         0.1501
     21 H3         -0.8653   -0.6475    0.0072 H         1 <0>         0.2170
     22 H4          3.9694    0.6186    0.9957 H         1 <0>         0.1706
     23 H5          4.3786   -1.3560   -0.2085 H         1 <0>         0.4426
     24 H6          3.6034   -2.6873   -4.7452 H         1 <0>         0.1744
     25 H7          3.8354   -0.5609   -5.9528 H         1 <0>         0.1731
     26 H8          4.9574    2.9743   -3.5690 H         1 <0>         0.4442
     27 H9          4.9203    3.7767   -2.0933 H         1 <0>         0.4323
     28 H10         4.2668    2.6183   -0.2051 H         1 <0>         0.4418
@<TRIPOS>BOND
     1    1    5 2
     2    1    2 1
     3    1   19 1
     4    2    3 2
     5    2   20 1
     6    3    4 1
     7    3    6 1
     8    4    5 1
     9    5   21 1
    10    6   15 1
    11    6    7 1
    12    6   22 1
    13    7    8 1
    14    7   23 1
    15    8   13 ar
    16    8    9 ar
    17    9   10 ar
    18    9   18 1
    19   10   11 ar
    20   10   24 1
    21   11   12 ar
    22   11   25 1
    23   12   13 ar
    24   12   17 1
    25   13   14 1
    26   14   15 2
    27   14   16 1
    28   15   28 1
    29   16   26 1
    30   16   27 1
@<TRIPOS>MOLECULE
CHEMBL479014
   17    18     0     0     0
SMALL
USER_CHARGES

@<TRIPOS>ATOM
      1 C1         -0.0168    1.3850    0.0097 C.ar      1 <0>        -0.1565
      2 C2          1.1483    2.0963    0.0024 C.ar      1 <0>         0.0238
      3 C3          2.3722    1.4191   -0.0129 C.ar      1 <0>        -0.1610
      4 C4          2.3893    0.0108   -0.0206 C.ar      1 <0>         0.1805
      5 C5          1.1848   -0.6879   -0.0129 C.ar      1 <0>        -0.0724
      6 C6          0.0021   -0.0041    0.0020 C.ar      1 <0>         0.0145
      7 N1          1.1858   -2.1681   -0.0213 N.pl3     1 <0>         0.0428
      8 O1          0.1392   -2.7733   -0.0145 O.2       1 <0>        -0.1418
      9 O2          2.2332   -2.7718   -0.0349 O.3       1 <0>        -0.1839
     10 N2          3.7064   -0.3678   -0.0356 N.pl3     1 <0>        -0.4696
     11 H1          4.0287   -1.2827   -0.0442 H         1 <0>         0.4605
     12 N3          4.5113    0.7760   -0.0374 N.2       1 <0>        -0.1931
     13 C7          3.7682    1.8462   -0.0244 C.2       1 <0>         0.0990
     14 Br1         4.3872    3.6330   -0.0219 Br        1 <0>         0.0749
     15 H2         -0.9621    1.9070    0.0260 H         1 <0>         0.1601
     16 H3          1.1252    3.1761    0.0080 H         1 <0>         0.1553
     17 H4         -0.9297   -0.5501    0.0079 H         1 <0>         0.1670
@<TRIPOS>BOND
     1    1    6 ar
     2    1    2 ar
     3    1   15 1
     4    2    3 ar
     5    2   16 1
     6    3   13 1
     7    3    4 ar
     8    4    5 ar
     9    4   10 1
    10    5    6 ar
    11    5    7 1
    12    6   17 1
    13    7    8 2
    14    7    9 1
    15   10   11 1
    16   10   12 1
    17   12   13 2
    18   13   14 1
@<TRIPOS>MOLECULE
CHEMBL479014__1
   16    17     0     0     0
SMALL
USER_CHARGES

@<TRIPOS>ATOM
      1 C1         -0.0168    1.3850    0.0097 C.ar      1 <0>        -0.2150
      2 C2          1.1483    2.0963    0.0024 C.ar      1 <0>         0.0094
      3 C3          2.3722    1.4191   -0.0129 C.ar      1 <0>        -0.1998
      4 C4          2.3893    0.0108   -0.0206 C.ar      1 <0>         0.0956
      5 C5          1.1848   -0.6879   -0.0129 C.ar      1 <0>        -0.0618
      6 C6          0.0021   -0.0041    0.0020 C.ar      1 <0>        -0.0193
      7 N1          1.1858   -2.1681   -0.0213 N.pl3     1 <0>         0.0527
      8 O1          0.1392   -2.7733   -0.0145 O.2       1 <0>        -0.2288
      9 O2          2.2332   -2.7718   -0.0349 O.3       1 <0>        -0.1550
     10 N2          3.7064   -0.3678   -0.0356 N.2       1 <0>        -0.3734
     11 N3          4.5113    0.7760   -0.0374 N.2       1 <0>        -0.2723
     12 C7          3.7682    1.8462   -0.0244 C.2       1 <0>         0.0142
     13 Br1         4.3872    3.6330   -0.0219 Br        1 <0>        -0.0310
     14 H1         -0.9621    1.9070    0.0260 H         1 <0>         0.1278
     15 H2          1.1252    3.1761    0.0080 H         1 <0>         0.1207
     16 H3         -0.9297   -0.5501    0.0079 H         1 <0>         0.1362
@<TRIPOS>BOND
     1    1    6 ar
     2    1    2 ar
     3    1   14 1
     4    2    3 ar
     5    2   15 1
     6    3   12 1
     7    3    4 ar
     8    4    5 ar
     9    4   10 1
    10    5    6 ar
    11    5    7 1
    12    6   16 1
    13    7    8 2
    14    7    9 1
    15   10   11 1
    16   11   12 2
    17   12   13 1
@<TRIPOS>MOLECULE
CHEMBL87187
   60    64     0     0     0
SMALL
USER_CHARGES

@<TRIPOS>ATOM
      1 C1         -0.0168    1.3873    0.0097 C.ar      1 <0>        -0.1200
      2 C2          1.1414    2.1040    0.0025 C.ar      1 <0>        -0.0756
      3 C3          2.3772    1.4377   -0.0128 C.ar      1 <0>        -0.1012
      4 C4          3.5921    2.1497   -0.0200 C.ar      1 <0>        -0.0507
      5 C5          4.7567    1.4367   -0.0346 C.ar      1 <0>        -0.1700
      6 C6          4.7192    0.0439   -0.0418 C.ar      1 <0>         0.1409
      7 N1          3.5860   -0.6150   -0.0351 N.ar      1 <0>        -0.4755
      8 C7          2.4121    0.0220   -0.0208 C.ar      1 <0>         0.1211
      9 C8          1.1948   -0.6941   -0.0134 C.ar      1 <0>         0.1625
     10 C9          0.0021   -0.0041    0.0020 C.ar      1 <0>        -0.0937
     11 N2          1.1998   -2.0883   -0.0219 N.pl3     1 <0>        -0.6598
     12 C10         1.2084   -2.8523    1.2353 C.3       1 <0>         0.1233
     13 C11         0.0915   -3.8996    1.1748 C.3       1 <0>        -0.0216
     14 N3          0.2544   -4.7184   -0.0331 N.4       1 <0>        -0.3808
     15 C12         0.0798   -3.8851   -1.2294 C.3       1 <0>        -0.0276
     16 C13         1.1904   -2.8371   -1.2881 C.3       1 <0>         0.1235
     17 C14        -0.7495   -5.7908   -0.0347 C.3       1 <0>        -0.0055
     18 C15        -0.5033   -6.7182   -1.2263 C.3       1 <0>        -0.1136
     19 C16        -1.5332   -7.8183   -1.2279 C.ar      1 <0>        -0.0603
     20 C17        -1.2839   -8.9965   -0.5475 C.ar      1 <0>        -0.0999
     21 C18        -2.2235  -10.0074   -0.5455 C.ar      1 <0>        -0.0634
     22 C19        -3.4253   -9.8394   -1.2309 C.ar      1 <0>        -0.0878
     23 C20        -3.6711   -8.6502   -1.9148 C.ar      1 <0>        -0.0939
     24 C21        -2.7267   -7.6439   -1.9052 C.ar      1 <0>        -0.0994
     25 C22        -4.4389  -10.9225   -1.2329 C.ar      1 <0>         0.2218
     26 C23        -4.1861  -12.1042   -0.5425 C.ar      1 <0>        -0.1589
     27 C24        -5.1399  -13.1100   -0.5501 C.ar      1 <0>         0.0426
     28 C25        -6.3170  -12.9017   -1.2486 C.ar      1 <0>        -0.1936
     29 C26        -6.5076  -11.6967   -1.9183 C.ar      1 <0>         0.4611
     30 N4         -5.5806  -10.7531   -1.8885 N.ar      1 <0>        -0.5086
     31 N5         -7.6865  -11.4803   -2.6221 N.pl3     1 <0>        -0.8173
     32 H1         -0.9637    1.9065    0.0260 H         1 <0>         0.1345
     33 H2          1.1092    3.1836    0.0081 H         1 <0>         0.1373
     34 H3          3.6025    3.2296   -0.0146 H         1 <0>         0.1454
     35 H4          5.7059    1.9519   -0.0408 H         1 <0>         0.1441
     36 H5          5.6479   -0.5072   -0.0537 H         1 <0>         0.1624
     37 H6         -0.9298   -0.5500    0.0080 H         1 <0>         0.1261
     38 H7          2.1708   -3.3498    1.3550 H         1 <0>         0.0811
     39 H8          1.0340   -2.1788    2.0744 H         1 <0>         0.1143
     40 H9          0.1440   -4.5382    2.0566 H         1 <0>         0.1369
     41 H10        -0.8758   -3.3980    1.1462 H         1 <0>         0.1300
     42 H11         0.1236   -4.5130   -2.1193 H         1 <0>         0.1357
     43 H12        -0.8872   -3.3840   -1.1853 H         1 <0>         0.1303
     44 H13         1.0041   -2.1536   -2.1165 H         1 <0>         0.1135
     45 H14         2.1510   -3.3330   -1.4275 H         1 <0>         0.0803
     46 H15        -0.6736   -6.3609    0.8912 H         1 <0>         0.1338
     47 H16        -1.7459   -5.3556   -0.1127 H         1 <0>         0.1303
     48 H17        -0.5792   -6.1480   -2.1522 H         1 <0>         0.1037
     49 H18         0.4930   -7.1533   -1.1483 H         1 <0>         0.1059
     50 H19        -0.3521   -9.1258   -0.0170 H         1 <0>         0.1457
     51 H20        -2.0277  -10.9270   -0.0142 H         1 <0>         0.1482
     52 H21        -4.6007   -8.5147   -2.4475 H         1 <0>         0.1265
     53 H22        -2.9180   -6.7201   -2.4309 H         1 <0>         0.1415
     54 H23        -3.2574  -12.2362   -0.0072 H         1 <0>         0.1810
     55 H24        -4.9683  -14.0367   -0.0227 H         1 <0>         0.1817
     56 H25        -7.0793  -13.6664   -1.2737 H         1 <0>         0.1852
     57 H26        -8.3710  -12.1672   -2.6445 H         1 <0>         0.4445
     58 H27        -7.8247  -10.6424   -3.0907 H         1 <0>         0.4219
     59 H28         1.1777   -5.1253   -0.0401 H         1 <0>         0.4245
     60 H29        -5.7373   -9.9199   -2.3599 H         1 <0>         0.4357
@<TRIPOS>BOND
     1    1   10 ar
     2    1    2 ar
     3    1   32 1
     4    2    3 ar
     5    2   33 1
     6    3    8 ar
     7    3    4 ar
     8    4    5 ar
     9    4   34 1
    10    5    6 ar
    11    5   35 1
    12    6    7 ar
    13    6   36 1
    14    7    8 ar
    15    8    9 ar
    16    9   10 ar
    17    9   11 1
    18   10   37 1
    19   11   16 1
    20   11   12 1
    21   12   13 1
    22   12   38 1
    23   12   39 1
    24   13   14 1
    25   13   40 1
    26   13   41 1
    27   14   15 1
    28   14   17 1
    29   14   59 1
    30   15   16 1
    31   15   42 1
    32   15   43 1
    33   16   44 1
    34   16   45 1
    35   17   18 1
    36   17   46 1
    37   17   47 1
    38   18   19 1
    39   18   48 1
    40   18   49 1
    41   19   24 ar
    42   19   20 ar
    43   20   21 ar
    44   20   50 1
    45   21   22 ar
    46   21   51 1
    47   22   23 ar
    48   22   25 1
    49   23   24 ar
    50   23   52 1
    51   24   53 1
    52   25   30 ar
    53   25   26 ar
    54   26   27 ar
    55   26   54 1
    56   27   28 ar
    57   27   55 1
    58   28   29 ar
    59   28   56 1
    60   29   30 ar
    61   29   31 1
    62   30   60 1
    63   31   57 1
    64   31   58 1
@<TRIPOS>MOLECULE
CHEMBL87187__1
   59    63     0     0     0
SMALL
USER_CHARGES

@<TRIPOS>ATOM
      1 C1         -0.0168    1.3873    0.0097 C.ar      1 <0>        -0.1092
      2 C2          1.1414    2.1040    0.0025 C.ar      1 <0>        -0.0992
      3 C3          2.3772    1.4377   -0.0128 C.ar      1 <0>        -0.0985
      4 C4          3.5921    2.1497   -0.0200 C.ar      1 <0>        -0.0598
      5 C5          4.7567    1.4367   -0.0346 C.ar      1 <0>        -0.1726
      6 C6          4.7192    0.0439   -0.0418 C.ar      1 <0>         0.1273
      7 N1          3.5860   -0.6150   -0.0351 N.ar      1 <0>        -0.4578
      8 C7          2.4121    0.0220   -0.0208 C.ar      1 <0>         0.1148
      9 C8          1.1948   -0.6941   -0.0134 C.ar      1 <0>         0.1974
     10 C9          0.0021   -0.0041    0.0020 C.ar      1 <0>        -0.1134
     11 N2          1.1998   -2.0883   -0.0219 N.pl3     1 <0>        -0.6652
     12 C10         1.2085   -2.8508    1.2358 C.3       1 <0>         0.1550
     13 C11         0.0798   -3.8861    1.1852 C.3       1 <0>         0.0428
     14 N3          0.2165   -4.6956   -0.0329 N.3       1 <0>        -0.5333
     15 C12         0.0684   -3.8715   -1.2399 C.3       1 <0>         0.0380
     16 C13         1.1904   -2.8356   -1.2886 C.3       1 <0>         0.1549
     17 C14        -0.7414   -5.8094   -0.0351 C.3       1 <0>         0.0632
     18 C15        -0.4083   -6.7663   -1.1815 C.3       1 <0>        -0.0925
     19 C16        -1.3910   -7.9088   -1.1838 C.ar      1 <0>        -0.0271
     20 C17        -1.1215   -9.0509   -0.4515 C.ar      1 <0>        -0.1084
     21 C18        -2.0178  -10.1003   -0.4499 C.ar      1 <0>        -0.0603
     22 C19        -3.1964  -10.0078   -1.1879 C.ar      1 <0>        -0.1179
     23 C20        -3.4627   -8.8547   -1.9239 C.ar      1 <0>        -0.0916
     24 C21        -2.5619   -7.8092   -1.9136 C.ar      1 <0>        -0.1092
     25 C22        -4.1634  -11.1326   -1.1905 C.ar      1 <0>         0.2441
     26 C23        -3.8906  -12.2778   -0.4480 C.ar      1 <0>        -0.1701
     27 C24        -4.8009  -13.3230   -0.4567 C.ar      1 <0>         0.0436
     28 C25        -5.9560  -13.1896   -1.2083 C.ar      1 <0>        -0.2053
     29 C26        -6.1685  -12.0179   -1.9286 C.ar      1 <0>         0.4567
     30 N4         -5.2833  -11.0351   -1.8966 N.ar      1 <0>        -0.5095
     31 N5         -7.3254  -11.8766   -2.6858 N.pl3     1 <0>        -0.8232
     32 H1         -0.9637    1.9065    0.0260 H         1 <0>         0.1285
     33 H2          1.1092    3.1836    0.0081 H         1 <0>         0.1309
     34 H3          3.6025    3.2296   -0.0146 H         1 <0>         0.1395
     35 H4          5.7059    1.9519   -0.0408 H         1 <0>         0.1382
     36 H5          5.6479   -0.5072   -0.0537 H         1 <0>         0.1583
     37 H6         -0.9298   -0.5500    0.0080 H         1 <0>         0.1251
     38 H7          2.1662   -3.3586    1.3496 H         1 <0>         0.0616
     39 H8          1.0475   -2.1744    2.0752 H         1 <0>         0.0697
     40 H9          0.1400   -4.5329    2.0605 H         1 <0>         0.0810
     41 H10        -0.8827   -3.3747    1.1759 H         1 <0>         0.0356
     42 H11         0.1203   -4.5077   -2.1234 H         1 <0>         0.0812
     43 H12        -0.8940   -3.3603   -1.2154 H         1 <0>         0.0348
     44 H13         1.0174   -2.1491   -2.1175 H         1 <0>         0.0686
     45 H14         2.1464   -3.3419   -1.4222 H         1 <0>         0.0606
     46 H15        -0.6801   -6.3432    0.9132 H         1 <0>         0.0780
     47 H16        -1.7508   -5.4201   -0.1684 H         1 <0>         0.0341
     48 H17        -0.4697   -6.2324   -2.1299 H         1 <0>         0.0827
     49 H18         0.6010   -7.1555   -1.0483 H         1 <0>         0.0943
     50 H19        -0.2077   -9.1217    0.1198 H         1 <0>         0.1450
     51 H20        -1.8062  -10.9917    0.1220 H         1 <0>         0.1423
     52 H21        -4.3745   -8.7776   -2.4976 H         1 <0>         0.1200
     53 H22        -2.7695   -6.9132   -2.4798 H         1 <0>         0.1385
     54 H23        -2.9800  -12.3513    0.1280 H         1 <0>         0.1805
     55 H24        -4.6130  -14.2226    0.1105 H         1 <0>         0.1780
     56 H25        -6.6843  -13.9865   -1.2357 H         1 <0>         0.1808
     57 H26        -7.9795  -12.5925   -2.7103 H         1 <0>         0.4414
     58 H27        -7.4788  -11.0622   -3.1898 H         1 <0>         0.4204
     59 H28        -5.4547  -10.2262   -2.4038 H         1 <0>         0.4362
@<TRIPOS>BOND
     1    1   10 ar
     2    1    2 ar
     3    1   32 1
     4    2    3 ar
     5    2   33 1
     6    3    8 ar
     7    3    4 ar
     8    4    5 ar
     9    4   34 1
    10    5    6 ar
    11    5   35 1
    12    6    7 ar
    13    6   36 1
    14    7    8 ar
    15    8    9 ar
    16    9   10 ar
    17    9   11 1
    18   10   37 1
    19   11   16 1
    20   11   12 1
    21   12   13 1
    22   12   38 1
    23   12   39 1
    24   13   14 1
    25   13   40 1
    26   13   41 1
    27   14   15 1
    28   14   17 1
    29   15   16 1
    30   15   42 1
    31   15   43 1
    32   16   44 1
    33   16   45 1
    34   17   18 1
    35   17   46 1
    36   17   47 1
    37   18   19 1
    38   18   48 1
    39   18   49 1
    40   19   24 ar
    41   19   20 ar
    42   20   21 ar
    43   20   50 1
    44   21   22 ar
    45   21   51 1
    46   22   23 ar
    47   22   25 1
    48   23   24 ar
    49   23   52 1
    50   24   53 1
    51   25   30 ar
    52   25   26 ar
    53   26   27 ar
    54   26   54 1
    55   27   28 ar
    56   27   55 1
    57   28   29 ar
    58   28   56 1
    59   29   30 ar
    60   29   31 1
    61   30   59 1
    62   31   57 1
    63   31   58 1
@<TRIPOS>MOLECULE
CHEMBL87187__2
   59    63     0     0     0
SMALL
USER_CHARGES

@<TRIPOS>ATOM
      1 C1         -0.0168    1.3873    0.0097 C.ar      1 <0>        -0.1171
      2 C2          1.1414    2.1040    0.0025 C.ar      1 <0>        -0.0801
      3 C3          2.3772    1.4377   -0.0128 C.ar      1 <0>        -0.1009
      4 C4          3.5921    2.1497   -0.0200 C.ar      1 <0>        -0.0523
      5 C5          4.7567    1.4367   -0.0346 C.ar      1 <0>        -0.1711
      6 C6          4.7192    0.0439   -0.0418 C.ar      1 <0>         0.1383
      7 N1          3.5860   -0.6150   -0.0351 N.ar      1 <0>        -0.4723
      8 C7          2.4121    0.0220   -0.0208 C.ar      1 <0>         0.1208
      9 C8          1.1948   -0.6941   -0.0134 C.ar      1 <0>         0.1676
     10 C9          0.0021   -0.0041    0.0020 C.ar      1 <0>        -0.0952
     11 N2          1.1998   -2.0883   -0.0219 N.pl3     1 <0>        -0.6617
     12 C10         1.2084   -2.8523    1.2353 C.3       1 <0>         0.1245
     13 C11         0.0915   -3.8996    1.1748 C.3       1 <0>        -0.0218
     14 N3          0.2544   -4.7184   -0.0331 N.4       1 <0>        -0.3806
     15 C12         0.0798   -3.8851   -1.2294 C.3       1 <0>        -0.0274
     16 C13         1.1904   -2.8371   -1.2881 C.3       1 <0>         0.1244
     17 C14        -0.7495   -5.7908   -0.0347 C.3       1 <0>        -0.0064
     18 C15        -0.5033   -6.7182   -1.2263 C.3       1 <0>        -0.1001
     19 C16        -1.5332   -7.8183   -1.2279 C.ar      1 <0>        -0.0998
     20 C17        -1.2839   -8.9965   -0.5475 C.ar      1 <0>        -0.1135
     21 C18        -2.2235  -10.0074   -0.5455 C.ar      1 <0>        -0.0760
     22 C19        -3.4253   -9.8394   -1.2309 C.ar      1 <0>        -0.0266
     23 C20        -3.6711   -8.6502   -1.9148 C.ar      1 <0>        -0.0955
     24 C21        -2.7267   -7.6439   -1.9052 C.ar      1 <0>        -0.1113
     25 C22        -4.4389  -10.9225   -1.2329 C.ar      1 <0>         0.2007
     26 C23        -5.6336  -10.7472   -1.9251 C.ar      1 <0>        -0.2190
     27 C24        -6.5739  -11.7655   -1.9211 C.ar      1 <0>        -0.0290
     28 C25        -6.2894  -12.9276   -1.2244 C.ar      1 <0>        -0.2322
     29 C26        -5.0757  -13.0392   -0.5527 C.ar      1 <0>         0.4117
     30 N4         -4.1955  -12.0518   -0.5789 N.ar      1 <0>        -0.5397
     31 N5         -4.7830  -14.2026    0.1493 N.pl3     1 <0>        -0.8496
     32 H1         -0.9637    1.9065    0.0260 H         1 <0>         0.1342
     33 H2          1.1092    3.1836    0.0081 H         1 <0>         0.1359
     34 H3          3.6025    3.2296   -0.0146 H         1 <0>         0.1439
     35 H4          5.7059    1.9519   -0.0408 H         1 <0>         0.1425
     36 H5          5.6479   -0.5072   -0.0537 H         1 <0>         0.1615
     37 H6         -0.9298   -0.5500    0.0080 H         1 <0>         0.1280
     38 H7          2.1708   -3.3498    1.3550 H         1 <0>         0.0798
     39 H8          1.0340   -2.1788    2.0744 H         1 <0>         0.1119
     40 H9          0.1440   -4.5382    2.0566 H         1 <0>         0.1361
     41 H10        -0.8758   -3.3980    1.1462 H         1 <0>         0.1295
     42 H11         0.1236   -4.5130   -2.1193 H         1 <0>         0.1376
     43 H12        -0.8872   -3.3840   -1.1853 H         1 <0>         0.1299
     44 H13         1.0041   -2.1536   -2.1165 H         1 <0>         0.1117
     45 H14         2.1510   -3.3330   -1.4275 H         1 <0>         0.0792
     46 H15        -0.6736   -6.3609    0.8912 H         1 <0>         0.1323
     47 H16        -1.7459   -5.3556   -0.1127 H         1 <0>         0.1302
     48 H17        -0.5792   -6.1480   -2.1522 H         1 <0>         0.0951
     49 H18         0.4930   -7.1533   -1.1483 H         1 <0>         0.0957
     50 H19        -0.3521   -9.1258   -0.0170 H         1 <0>         0.1269
     51 H20        -2.0277  -10.9270   -0.0142 H         1 <0>         0.1397
     52 H21        -4.6007   -8.5147   -2.4475 H         1 <0>         0.1344
     53 H22        -2.9180   -6.7201   -2.4309 H         1 <0>         0.1273
     54 H23        -5.8258   -9.8282   -2.4589 H         1 <0>         0.1342
     55 H24        -7.5090  -11.6546   -2.4500 H         1 <0>         0.1392
     56 H25        -7.0020  -13.7388   -1.2021 H         1 <0>         0.1353
     57 H26        -5.4231  -14.9311    0.1692 H         1 <0>         0.4117
     58 H27        -3.9386  -14.2859    0.6194 H         1 <0>         0.4050
     59 H28         1.1777   -5.1253   -0.0401 H         1 <0>         0.4226
@<TRIPOS>BOND
     1    1   10 ar
     2    1    2 ar
     3    1   32 1
     4    2    3 ar
     5    2   33 1
     6    3    8 ar
     7    3    4 ar
     8    4    5 ar
     9    4   34 1
    10    5    6 ar
    11    5   35 1
    12    6    7 ar
    13    6   36 1
    14    7    8 ar
    15    8    9 ar
    16    9   10 ar
    17    9   11 1
    18   10   37 1
    19   11   16 1
    20   11   12 1
    21   12   13 1
    22   12   38 1
    23   12   39 1
    24   13   14 1
    25   13   40 1
    26   13   41 1
    27   14   15 1
    28   14   17 1
    29   14   59 1
    30   15   16 1
    31   15   42 1
    32   15   43 1
    33   16   44 1
    34   16   45 1
    35   17   18 1
    36   17   46 1
    37   17   47 1
    38   18   19 1
    39   18   48 1
    40   18   49 1
    41   19   24 ar
    42   19   20 ar
    43   20   21 ar
    44   20   50 1
    45   21   22 ar
    46   21   51 1
    47   22   23 ar
    48   22   25 1
    49   23   24 ar
    50   23   52 1
    51   24   53 1
    52   25   30 ar
    53   25   26 ar
    54   26   27 ar
    55   26   54 1
    56   27   28 ar
    57   27   55 1
    58   28   29 ar
    59   28   56 1
    60   29   30 ar
    61   29   31 1
    62   31   57 1
    63   31   58 1
@<TRIPOS>MOLECULE
CHEMBL412901
   28    30     0     0     0
SMALL
USER_CHARGES

@<TRIPOS>ATOM
      1 C1         -0.0167    1.3776    0.0096 C.ar      1 <0>        -0.1598
      2 C2          1.1849    2.0698    0.0019 C.ar      1 <0>        -0.0494
      3 C3          2.3651    1.3426   -0.0133 C.ar      1 <0>        -0.1904
      4 C4          2.3054   -0.0383   -0.0202 C.ar      1 <0>         0.1084
      5 N1          1.1443   -0.6632   -0.0129 N.ar      1 <0>        -0.4746
      6 C5          0.0021   -0.0041    0.0020 C.ar      1 <0>         0.1191
      7 C6          3.6964    2.0488   -0.0227 C.3       1 <0>         0.1844
      8 C7          4.1793    2.1584   -1.4671 C.3       1 <0>        -0.0833
      9 C8          4.6669    0.7921   -1.9214 C.2       1 <0>         0.0124
     10 C9          4.6526    0.2640   -3.1922 C.2       1 <0>        -0.1863
     11 C10         5.1433   -0.9837   -3.4029 C.2       1 <0>        -0.1680
     12 S1          5.6474   -1.4939   -1.8789 S.3       1 <0>         0.3506
     13 C11         5.2032   -0.0605   -0.9580 C.2       1 <0>        -0.3683
     14 C12         5.3009    0.2829    0.4518 C.cat     1 <0>         0.6408
     15 N2          4.6104    1.3282    0.8516 N.pl3     1 <0>        -0.6213
     16 N3          6.0786   -0.4502    1.3250 N.pl3     1 <0>        -0.7852
     17 H1         -0.9552    1.9117    0.0259 H         1 <0>         0.1493
     18 H2          1.2009    3.1496    0.0072 H         1 <0>         0.1465
     19 H3          3.2203   -0.6121   -0.0320 H         1 <0>         0.1410
     20 H4         -0.9294   -0.5505    0.0083 H         1 <0>         0.1674
     21 H5          3.5578    3.0551    0.3726 H         1 <0>         0.1438
     22 H6          3.3568    2.4837   -2.1041 H         1 <0>         0.1270
     23 H7          4.9970    2.8768   -1.5259 H         1 <0>         0.1182
     24 H8          4.2537    0.8380   -4.0154 H         1 <0>         0.1570
     25 H9          5.1983   -1.5258   -4.3354 H         1 <0>         0.2113
     26 H10         6.5781   -1.2168    1.0031 H         1 <0>         0.4425
     27 H11         6.1256   -0.1988    2.2607 H         1 <0>         0.4333
     28 H12         4.7142    1.6316    1.7671 H         1 <0>         0.4333
@<TRIPOS>BOND
     1    1    6 ar
     2    1    2 ar
     3    1   17 1
     4    2    3 ar
     5    2   18 1
     6    3    4 ar
     7    3    7 1
     8    4    5 ar
     9    4   19 1
    10    5    6 ar
    11    6   20 1
    12    7   15 1
    13    7    8 1
    14    7   21 1
    15    8    9 1
    16    8   22 1
    17    8   23 1
    18    9   13 2
    19    9   10 1
    20   10   11 2
    21   10   24 1
    22   11   12 1
    23   11   25 1
    24   12   13 1
    25   13   14 1
    26   14   15 2
    27   14   16 1
    28   15   28 1
    29   16   26 1
    30   16   27 1
@<TRIPOS>MOLECULE
CHEMBL412901__1
   28    30     0     0     0
SMALL
USER_CHARGES

@<TRIPOS>ATOM
      1 C1         -0.0167    1.3776    0.0096 C.ar      1 <0>        -0.1596
      2 C2          1.1849    2.0698    0.0019 C.ar      1 <0>        -0.0448
      3 C3          2.3651    1.3426   -0.0133 C.ar      1 <0>        -0.1883
      4 C4          2.3054   -0.0383   -0.0202 C.ar      1 <0>         0.1111
      5 N1          1.1443   -0.6632   -0.0129 N.ar      1 <0>        -0.4735
      6 C5          0.0021   -0.0041    0.0020 C.ar      1 <0>         0.1244
      7 C6          3.6964    2.0488   -0.0227 C.3       1 <0>         0.1875
      8 C7          4.2074    2.1439    1.4130 C.3       1 <0>        -0.0822
      9 C8          5.6664    2.5696    1.3823 C.2       1 <0>         0.0068
     10 C9          6.3583    3.3003    2.3209 C.2       1 <0>        -0.1865
     11 C10         7.6713    3.5775    2.1172 C.2       1 <0>        -0.1705
     12 S1          8.0228    2.8540    0.6373 S.3       1 <0>         0.3499
     13 C11         6.4318    2.1896    0.2811 C.2       1 <0>        -0.3598
     14 C12         5.9024    1.4284   -0.8392 C.cat     1 <0>         0.6433
     15 N2          4.5931    1.3372   -0.9220 N.pl3     1 <0>        -0.6234
     16 N3          6.7313    0.8321   -1.7677 N.pl3     1 <0>        -0.7867
     17 H1         -0.9552    1.9117    0.0259 H         1 <0>         0.1504
     18 H2          1.2009    3.1496    0.0072 H         1 <0>         0.1462
     19 H3          3.2203   -0.6121   -0.0320 H         1 <0>         0.1502
     20 H4         -0.9294   -0.5505    0.0083 H         1 <0>         0.1690
     21 H5          3.5502    3.0590   -0.4051 H         1 <0>         0.1223
     22 H6          3.6224    2.8822    1.9613 H         1 <0>         0.1282
     23 H7          4.1202    1.1714    1.8974 H         1 <0>         0.1121
     24 H8          5.8603    3.6509    3.2128 H         1 <0>         0.1578
     25 H9          8.3386    4.1347    2.7580 H         1 <0>         0.2112
     26 H10         7.6940    0.9151   -1.6824 H         1 <0>         0.4422
     27 H11         6.3513    0.3300   -2.5055 H         1 <0>         0.4328
     28 H12         4.2090    0.7725   -1.6108 H         1 <0>         0.4301
@<TRIPOS>BOND
     1    1    6 ar
     2    1    2 ar
     3    1   17 1
     4    2    3 ar
     5    2   18 1
     6    3    4 ar
     7    3    7 1
     8    4    5 ar
     9    4   19 1
    10    5    6 ar
    11    6   20 1
    12    7   15 1
    13    7    8 1
    14    7   21 1
    15    8    9 1
    16    8   22 1
    17    8   23 1
    18    9   13 2
    19    9   10 1
    20   10   11 2
    21   10   24 1
    22   11   12 1
    23   11   25 1
    24   12   13 1
    25   13   14 1
    26   14   15 2
    27   14   16 1
    28   15   28 1
    29   16   26 1
    30   16   27 1
@<TRIPOS>MOLECULE
CHEMBL8292
   21    22     0     0     0
SMALL
USER_CHARGES

@<TRIPOS>ATOM
      1 C1          0.0180   -1.1779   -0.0044 C.1       1 <0>        -0.0936
      2 C2          0.0021   -0.0041    0.0020 C.1       1 <0>        -0.2698
      3 C3         -0.0179    1.4678    0.0101 C.3       1 <0>         0.2592
      4 C4         -0.8527    1.9499   -1.1740 C.3       1 <0>        -0.0834
      5 C5         -0.0457    1.7555   -2.4468 C.2       1 <0>         0.0104
      6 C6         -0.5082    1.5014   -3.7177 C.2       1 <0>        -0.1866
      7 C7          0.3782    1.3564   -4.7353 C.2       1 <0>        -0.1707
      8 S1          1.8831    1.5597   -4.0064 S.3       1 <0>         0.3461
      9 C8          1.3433    1.8382   -2.3543 C.2       1 <0>        -0.3596
     10 C9          2.0476    2.1024   -1.1092 C.cat     1 <0>         0.6468
     11 N1          1.3547    1.9505   -0.0004 N.pl3     1 <0>        -0.6233
     12 N2          3.3715    2.4920   -1.0914 N.pl3     1 <0>        -0.7857
     13 H1          0.0322   -2.2278   -0.0102 H         1 <0>         0.2300
     14 H2         -0.4971    1.8029    0.9300 H         1 <0>         0.1522
     15 H3         -1.7738    1.3701   -1.2325 H         1 <0>         0.1302
     16 H4         -1.0896    3.0064   -1.0486 H         1 <0>         0.1211
     17 H5         -1.5687    1.4176   -3.9040 H         1 <0>         0.1575
     18 H6          0.1668    1.1558   -5.7752 H         1 <0>         0.2109
     19 H7          3.8575    2.5964   -1.9243 H         1 <0>         0.4421
     20 H8          3.8158    2.6614   -0.2460 H         1 <0>         0.4330
     21 H9          1.7768    2.1694    0.8451 H         1 <0>         0.4330
@<TRIPOS>BOND
     1    1    2 3
     2    1   13 1
     3    2    3 1
     4    3   11 1
     5    3    4 1
     6    3   14 1
     7    4    5 1
     8    4   15 1
     9    4   16 1
    10    5    9 2
    11    5    6 1
    12    6    7 2
    13    6   17 1
    14    7    8 1
    15    7   18 1
    16    8    9 1
    17    9   10 1
    18   10   11 2
    19   10   12 1
    20   11   21 1
    21   12   19 1
    22   12   20 1
@<TRIPOS>MOLECULE
CHEMBL8292__1
   21    22     0     0     0
SMALL
USER_CHARGES

@<TRIPOS>ATOM
      1 C1          0.0180   -1.1779   -0.0044 C.1       1 <0>        -0.0739
      2 C2          0.0021   -0.0041    0.0020 C.1       1 <0>        -0.2719
      3 C3         -0.0179    1.4678    0.0101 C.3       1 <0>         0.2628
      4 C4         -0.8299    1.9371    1.2150 C.3       1 <0>        -0.0822
      5 C5         -0.6045    3.4284    1.4000 C.2       1 <0>         0.0059
      6 C6         -1.4711    4.3624    1.9198 C.2       1 <0>        -0.1856
      7 C7         -1.0838    5.6606    2.0031 C.2       1 <0>        -0.1708
      8 S1          0.4796    5.6678    1.3763 S.3       1 <0>         0.3529
      9 C8          0.6251    3.9536    1.0039 C.2       1 <0>        -0.3619
     10 C9          1.6918    3.1475    0.4310 C.cat     1 <0>         0.6448
     11 N1          1.3547    1.9505   -0.0004 N.pl3     1 <0>        -0.6229
     12 N2          2.9884    3.6127    0.3447 N.pl3     1 <0>        -0.7859
     13 H1          0.0322   -2.2278   -0.0102 H         1 <0>         0.2350
     14 H2         -0.5146    1.8127   -0.8968 H         1 <0>         0.1312
     15 H3         -1.8886    1.7459    1.0397 H         1 <0>         0.1317
     16 H4         -0.5019    1.4040    2.1074 H         1 <0>         0.1136
     17 H5         -2.4524    4.0647    2.2588 H         1 <0>         0.1586
     18 H6         -1.6494    6.4981    2.3839 H         1 <0>         0.2116
     19 H7          3.2082    4.4993    0.6711 H         1 <0>         0.4426
     20 H8          3.6797    3.0531   -0.0423 H         1 <0>         0.4329
     21 H9          2.0504    1.3657   -0.3395 H         1 <0>         0.4313
@<TRIPOS>BOND
     1    1    2 3
     2    1   13 1
     3    2    3 1
     4    3   11 1
     5    3    4 1
     6    3   14 1
     7    4    5 1
     8    4   15 1
     9    4   16 1
    10    5    9 2
    11    5    6 1
    12    6    7 2
    13    6   17 1
    14    7    8 1
    15    7   18 1
    16    8    9 1
    17    9   10 1
    18   10   11 2
    19   10   12 1
    20   11   21 1
    21   12   19 1
    22   12   20 1
@<TRIPOS>MOLECULE
CHEMBL271248
   37    38     0     0     0
SMALL
USER_CHARGES

@<TRIPOS>ATOM
      1 C1         -0.0178    1.4648    0.0101 C.3       1 <0>         0.0025
      2 N1          0.0021   -0.0041    0.0020 N.3       1 <0>        -0.5223
      3 C2          0.7062   -0.5275    1.1802 C.3       1 <0>         0.0894
      4 C3         -0.0734   -0.1864    2.4240 C.ar      1 <0>        -0.0338
      5 C4          0.3019    0.8891    3.2016 C.ar      1 <0>        -0.1050
      6 C5         -0.4135    1.2038    4.3448 C.ar      1 <0>        -0.0084
      7 C6         -1.5099    0.4421    4.7145 C.ar      1 <0>        -0.1015
      8 C7         -1.8954   -0.6352    3.9453 C.ar      1 <0>        -0.0560
      9 C8         -1.1809   -0.9550    2.7884 C.ar      1 <0>        -0.0036
     10 C9         -1.5794   -2.0693    1.9822 C.1       1 <0>         0.2565
     11 N2         -1.8955   -2.9533    1.3426 N.1       1 <0>        -0.4049
     12 Cl1         0.0660    2.5584    5.3189 Cl        1 <0>        -0.0448
     13 C10         0.5996   -0.5156   -1.2387 C.3       1 <0>         0.0643
     14 C11         2.0272    0.0207   -1.3778 C.3       1 <0>        -0.1773
     15 C12         2.6128   -0.4541   -2.7108 C.3       1 <0>        -0.1423
     16 C13         1.7058    0.0077   -3.8534 C.3       1 <0>        -0.0091
     17 N3          0.3635   -0.5594   -3.6773 N.4       1 <0>        -0.5023
     18 C14        -0.2328   -0.0515   -2.4359 C.3       1 <0>        -0.0068
     19 H1          1.0047    1.8421    0.0024 H         1 <0>         0.0438
     20 H2         -0.5450    1.8259   -0.8730 H         1 <0>         0.0725
     21 H3         -0.5280    1.8163    0.9069 H         1 <0>         0.0872
     22 H4          0.8004   -1.6101    1.0960 H         1 <0>         0.0935
     23 H5          1.6983   -0.0800    1.2392 H         1 <0>         0.0666
     24 H6          1.1558    1.4868    2.9186 H         1 <0>         0.1428
     25 H7         -2.0635    0.6924    5.6074 H         1 <0>         0.1503
     26 H8         -2.7501   -1.2286    4.2348 H         1 <0>         0.1477
     27 H9          0.6205   -1.6051   -1.2103 H         1 <0>         0.1060
     28 H10         2.0111    1.1104   -1.3543 H         1 <0>         0.0886
     29 H11         2.6389   -0.3537   -0.5570 H         1 <0>         0.0958
     30 H12         3.6084   -0.0306   -2.8424 H         1 <0>         0.1141
     31 H13         2.6761   -1.5423   -2.7134 H         1 <0>         0.0900
     32 H14         1.6434    1.0959   -3.8500 H         1 <0>         0.1304
     33 H15         2.1199   -0.3286   -4.8040 H         1 <0>         0.1358
     34 H16        -0.2168   -0.2969   -4.4599 H         1 <0>         0.4355
     35 H17        -1.2499   -0.4315   -2.3399 H         1 <0>         0.1422
     36 H18        -0.2539    1.0379   -2.4626 H         1 <0>         0.1334
     37 H19         0.4278   -1.5653   -3.6313 H         1 <0>         0.4291
@<TRIPOS>BOND
     1    1    2 1
     2    1   19 1
     3    1   20 1
     4    1   21 1
     5    2    3 1
     6    2   13 1
     7    3    4 1
     8    3   22 1
     9    3   23 1
    10    4    9 ar
    11    4    5 ar
    12    5    6 ar
    13    5   24 1
    14    6    7 ar
    15    6   12 1
    16    7    8 ar
    17    7   25 1
    18    8    9 ar
    19    8   26 1
    20    9   10 1
    21   10   11 3
    22   13   18 1
    23   13   14 1
    24   13   27 1
    25   14   15 1
    26   14   28 1
    27   14   29 1
    28   15   16 1
    29   15   30 1
    30   15   31 1
    31   16   17 1
    32   16   32 1
    33   16   33 1
    34   17   18 1
    35   17   34 1
    36   17   37 1
    37   18   35 1
    38   18   36 1
@<TRIPOS>MOLECULE
CHEMBL271248__1
   37    38     0     0     0
SMALL
USER_CHARGES

@<TRIPOS>ATOM
      1 C1         -0.0178    1.4648    0.0101 C.3       1 <0>         0.0048
      2 N1          0.0021   -0.0041    0.0020 N.3       1 <0>        -0.5256
      3 C2          0.7062   -0.5275    1.1802 C.3       1 <0>         0.0862
      4 C3         -0.0734   -0.1864    2.4240 C.ar      1 <0>        -0.0330
      5 C4          0.3019    0.8891    3.2016 C.ar      1 <0>        -0.1052
      6 C5         -0.4135    1.2038    4.3448 C.ar      1 <0>        -0.0081
      7 C6         -1.5099    0.4421    4.7145 C.ar      1 <0>        -0.1017
      8 C7         -1.8954   -0.6352    3.9453 C.ar      1 <0>        -0.0560
      9 C8         -1.1809   -0.9550    2.7884 C.ar      1 <0>        -0.0047
     10 C9         -1.5794   -2.0693    1.9822 C.1       1 <0>         0.2569
     11 N2         -1.8955   -2.9533    1.3426 N.1       1 <0>        -0.4047
     12 Cl1         0.0660    2.5584    5.3189 Cl        1 <0>        -0.0446
     13 C10         0.5996   -0.5156   -1.2387 C.3       1 <0>         0.0650
     14 C11         0.5088   -2.0442   -1.2575 C.3       1 <0>        -0.1394
     15 C12         1.0627   -2.5623   -2.5880 C.3       1 <0>        -0.1436
     16 C13         0.2876   -1.9211   -3.7411 C.3       1 <0>        -0.0094
     17 N3          0.4352   -0.4618   -3.6829 N.4       1 <0>        -0.5017
     18 C14        -0.1583    0.0497   -2.4418 C.3       1 <0>        -0.0093
     19 H1          1.0047    1.8421    0.0024 H         1 <0>         0.0408
     20 H2         -0.5450    1.8259   -0.8730 H         1 <0>         0.0735
     21 H3         -0.5280    1.8163    0.9069 H         1 <0>         0.0882
     22 H4          0.8004   -1.6101    1.0960 H         1 <0>         0.0965
     23 H5          1.6983   -0.0800    1.2392 H         1 <0>         0.0653
     24 H6          1.1558    1.4868    2.9186 H         1 <0>         0.1431
     25 H7         -2.0635    0.6924    5.6074 H         1 <0>         0.1503
     26 H8         -2.7501   -1.2286    4.2348 H         1 <0>         0.1476
     27 H9          1.6450   -0.2117   -1.2915 H         1 <0>         0.0685
     28 H10         1.0943   -2.4543   -0.4346 H         1 <0>         0.0928
     29 H11        -0.5325   -2.3489   -1.1528 H         1 <0>         0.0945
     30 H12         2.1179   -2.3015   -2.6692 H         1 <0>         0.0888
     31 H13         0.9504   -3.6456   -2.6319 H         1 <0>         0.1168
     32 H14         0.6793   -2.2879   -4.6899 H         1 <0>         0.1360
     33 H15        -0.7673   -2.1827   -3.6591 H         1 <0>         0.1325
     34 H16         1.4151   -0.2226   -3.7095 H         1 <0>         0.4271
     35 H17        -1.2038   -0.2539   -2.3874 H         1 <0>         0.1410
     36 H18        -0.0959    1.1379   -2.4313 H         1 <0>         0.1357
     37 H19        -0.0321   -0.0457   -4.4745 H         1 <0>         0.4354
@<TRIPOS>BOND
     1    1    2 1
     2    1   19 1
     3    1   20 1
     4    1   21 1
     5    2    3 1
     6    2   13 1
     7    3    4 1
     8    3   22 1
     9    3   23 1
    10    4    9 ar
    11    4    5 ar
    12    5    6 ar
    13    5   24 1
    14    6    7 ar
    15    6   12 1
    16    7    8 ar
    17    7   25 1
    18    8    9 ar
    19    8   26 1
    20    9   10 1
    21   10   11 3
    22   13   18 1
    23   13   14 1
    24   13   27 1
    25   14   15 1
    26   14   28 1
    27   14   29 1
    28   15   16 1
    29   15   30 1
    30   15   31 1
    31   16   17 1
    32   16   32 1
    33   16   33 1
    34   17   18 1
    35   17   34 1
    36   17   37 1
    37   18   35 1
    38   18   36 1
@<TRIPOS>MOLECULE
CHEMBL40391
   60    63     0     0     0
SMALL
USER_CHARGES

@<TRIPOS>ATOM
      1 C1         -0.0167    1.3798    0.0096 C.ar      1 <0>        -0.0755
      2 C2          1.1680    2.0953    0.0022 C.ar      1 <0>        -0.1284
      3 C3          2.3774    1.4332   -0.0134 C.ar      1 <0>        -0.0556
      4 C4          2.4048    0.0349   -0.0211 C.ar      1 <0>        -0.1845
      5 C5          1.2034   -0.6808   -0.0130 C.ar      1 <0>        -0.0758
      6 C6          0.0021   -0.0041    0.0020 C.ar      1 <0>        -0.1300
      7 C7          3.6913   -0.6795   -0.0381 C.2       1 <0>         0.4040
      8 O1          4.7311   -0.0559   -0.0455 O.2       1 <0>        -0.4395
      9 C8          3.7163   -2.1863   -0.0464 C.3       1 <0>         0.0083
     10 N1          5.1092   -2.6528   -0.0632 N.3       1 <0>        -0.5281
     11 C9          5.7708   -2.2905   -1.3246 C.3       1 <0>         0.0171
     12 C10         7.2327   -2.7405   -1.2779 C.3       1 <0>         0.0019
     13 N2          7.2914   -4.1940   -1.0742 N.4       1 <0>        -0.3878
     14 C11         6.6485   -4.5378    0.2009 C.3       1 <0>        -0.0060
     15 C12         5.1818   -4.1027    0.1666 C.3       1 <0>         0.0246
     16 C13         8.6946   -4.6281   -1.0476 C.3       1 <0>        -0.0048
     17 C14         8.7546   -6.1544   -0.9606 C.3       1 <0>        -0.1129
     18 C15        10.1941   -6.5998   -0.9333 C.ar      1 <0>        -0.0614
     19 C16        10.8555   -6.8661   -2.1185 C.ar      1 <0>        -0.1000
     20 C17        12.1738   -7.2743   -2.0995 C.ar      1 <0>        -0.0636
     21 C18        12.8385   -7.4179   -0.8831 C.ar      1 <0>        -0.0872
     22 C19        12.1671   -7.1482    0.3080 C.ar      1 <0>        -0.0938
     23 C20        10.8505   -6.7352    0.2767 C.ar      1 <0>        -0.0988
     24 C21        14.2552   -7.8567   -0.8561 C.ar      1 <0>         0.2215
     25 C22        14.9185   -8.1186   -2.0514 C.ar      1 <0>        -0.1588
     26 C23        16.2423   -8.5276   -2.0154 C.ar      1 <0>         0.0425
     27 C24        16.8612   -8.6619   -0.7842 C.ar      1 <0>        -0.1934
     28 C25        16.1413   -8.3842    0.3739 C.ar      1 <0>         0.4613
     29 N3         14.8799   -7.9906    0.3075 N.ar      1 <0>        -0.5085
     30 N4         16.7556   -8.5172    1.6137 N.pl3     1 <0>        -0.8172
     31 H1         -0.9607    1.9041    0.0260 H         1 <0>         0.1342
     32 H2          1.1452    3.1750    0.0081 H         1 <0>         0.1351
     33 H3          3.3011    1.9929   -0.0199 H         1 <0>         0.1347
     34 H4          1.2164   -1.7607   -0.0192 H         1 <0>         0.1280
     35 H5         -0.9266   -0.5553    0.0082 H         1 <0>         0.1340
     36 H6          3.2178   -2.5629    0.8468 H         1 <0>         0.1250
     37 H7          3.1995   -2.5534   -0.9331 H         1 <0>         0.0847
     38 H8          5.2650   -2.7829   -2.1551 H         1 <0>         0.0607
     39 H9          5.7271   -1.2099   -1.4609 H         1 <0>         0.1373
     40 H10         7.7215   -2.4854   -2.2182 H         1 <0>         0.1373
     41 H11         7.7416   -2.2375   -0.4557 H         1 <0>         0.1404
     42 H12         6.7044   -5.6151    0.3571 H         1 <0>         0.1367
     43 H13         7.1605   -4.0256    1.0156 H         1 <0>         0.1397
     44 H14         4.7085   -4.3442    1.1183 H         1 <0>         0.1269
     45 H15         4.6663   -4.6250   -0.6394 H         1 <0>         0.0643
     46 H16         9.1949   -4.2960   -1.9572 H         1 <0>         0.1349
     47 H17         9.1925   -4.1948   -0.1801 H         1 <0>         0.1334
     48 H18         8.2542   -6.4865   -0.0509 H         1 <0>         0.1038
     49 H19         8.2567   -6.5877   -1.8280 H         1 <0>         0.1050
     50 H20        10.3393   -6.7548   -3.0606 H         1 <0>         0.1453
     51 H21        12.6891   -7.4823   -3.0255 H         1 <0>         0.1482
     52 H22        12.6774   -7.2578    1.2535 H         1 <0>         0.1269
     53 H23        10.3307   -6.5213    1.1989 H         1 <0>         0.1421
     54 H24        14.4074   -8.0047   -2.9960 H         1 <0>         0.1809
     55 H25        16.7796   -8.7375   -2.9285 H         1 <0>         0.1817
     56 H26        17.8918   -8.9792   -0.7233 H         1 <0>         0.1853
     57 H27        17.6812   -8.8021    1.6683 H         1 <0>         0.4445
     58 H28        16.2586   -8.3250    2.4242 H         1 <0>         0.4219
     59 H29         6.8102   -4.6590   -1.8294 H         1 <0>         0.4217
     60 H30        14.3994   -7.7992    1.1280 H         1 <0>         0.4358
@<TRIPOS>BOND
     1    1    6 ar
     2    1    2 ar
     3    1   31 1
     4    2    3 ar
     5    2   32 1
     6    3    4 ar
     7    3   33 1
     8    4    5 ar
     9    4    7 1
    10    5    6 ar
    11    5   34 1
    12    6   35 1
    13    7    8 2
    14    7    9 1
    15    9   10 1
    16    9   36 1
    17    9   37 1
    18   10   15 1
    19   10   11 1
    20   11   12 1
    21   11   38 1
    22   11   39 1
    23   12   13 1
    24   12   40 1
    25   12   41 1
    26   13   14 1
    27   13   16 1
    28   13   59 1
    29   14   15 1
    30   14   42 1
    31   14   43 1
    32   15   44 1
    33   15   45 1
    34   16   17 1
    35   16   46 1
    36   16   47 1
    37   17   18 1
    38   17   48 1
    39   17   49 1
    40   18   23 ar
    41   18   19 ar
    42   19   20 ar
    43   19   50 1
    44   20   21 ar
    45   20   51 1
    46   21   22 ar
    47   21   24 1
    48   22   23 ar
    49   22   52 1
    50   23   53 1
    51   24   29 ar
    52   24   25 ar
    53   25   26 ar
    54   25   54 1
    55   26   27 ar
    56   26   55 1
    57   27   28 ar
    58   27   56 1
    59   28   29 ar
    60   28   30 1
    61   29   60 1
    62   30   57 1
    63   30   58 1
@<TRIPOS>MOLECULE
CHEMBL40391__1
   59    62     0     0     0
SMALL
USER_CHARGES

@<TRIPOS>ATOM
      1 C1         -0.0167    1.3798    0.0096 C.ar      1 <0>        -0.0854
      2 C2          1.1680    2.0953    0.0022 C.ar      1 <0>        -0.1308
      3 C3          2.3774    1.4332   -0.0134 C.ar      1 <0>        -0.0605
      4 C4          2.4048    0.0349   -0.0211 C.ar      1 <0>        -0.1726
      5 C5          1.2034   -0.6808   -0.0130 C.ar      1 <0>        -0.0754
      6 C6          0.0021   -0.0041    0.0020 C.ar      1 <0>        -0.1317
      7 C7          3.6913   -0.6795   -0.0381 C.2       1 <0>         0.3980
      8 O1          4.7311   -0.0559   -0.0455 O.2       1 <0>        -0.4336
      9 C8          3.7163   -2.1863   -0.0464 C.3       1 <0>         0.0101
     10 N1          5.1092   -2.6528   -0.0632 N.3       1 <0>        -0.5289
     11 C9          5.7714   -2.2884   -1.3235 C.3       1 <0>         0.0507
     12 C10         7.2386   -2.7207   -1.2692 C.3       1 <0>         0.0614
     13 N2          7.3113   -4.1704   -1.0394 N.3       1 <0>        -0.5406
     14 C11         6.6490   -4.5348    0.2208 C.3       1 <0>         0.0547
     15 C12         5.1818   -4.1025    0.1666 C.3       1 <0>         0.0553
     16 C13         8.7041   -4.6369   -1.0563 C.3       1 <0>         0.0627
     17 C14         8.7295   -6.1667   -1.0647 C.3       1 <0>        -0.0919
     18 C15        10.1584   -6.6453   -1.0819 C.ar      1 <0>        -0.0280
     19 C16        10.8012   -6.8523   -2.2891 C.ar      1 <0>        -0.1085
     20 C17        12.1097   -7.2905   -2.3109 C.ar      1 <0>        -0.0605
     21 C18        12.7834   -7.5245   -1.1136 C.ar      1 <0>        -0.1173
     22 C19        12.1309   -7.3143    0.0997 C.ar      1 <0>        -0.0914
     23 C20        10.8241   -6.8705    0.1096 C.ar      1 <0>        -0.1086
     24 C21        14.1898   -7.9961   -1.1306 C.ar      1 <0>         0.2439
     25 C22        14.8344   -8.1980   -2.3475 C.ar      1 <0>        -0.1701
     26 C23        16.1486   -8.6383   -2.3525 C.ar      1 <0>         0.0435
     27 C24        16.7770   -8.8629   -1.1394 C.ar      1 <0>        -0.2051
     28 C25        16.0757   -8.6415    0.0421 C.ar      1 <0>         0.4569
     29 N3         14.8232   -8.2162    0.0150 N.ar      1 <0>        -0.5093
     30 N4         16.6995   -8.8651    1.2639 N.pl3     1 <0>        -0.8231
     31 H1         -0.9607    1.9041    0.0260 H         1 <0>         0.1296
     32 H2          1.1452    3.1750    0.0081 H         1 <0>         0.1310
     33 H3          3.3011    1.9929   -0.0199 H         1 <0>         0.1336
     34 H4          1.2164   -1.7607   -0.0192 H         1 <0>         0.1299
     35 H5         -0.9266   -0.5553    0.0082 H         1 <0>         0.1309
     36 H6          3.2178   -2.5629    0.8468 H         1 <0>         0.1116
     37 H7          3.1995   -2.5534   -0.9331 H         1 <0>         0.0729
     38 H8          5.2748   -2.7906   -2.1537 H         1 <0>         0.0416
     39 H9          5.7154   -1.2091   -1.4649 H         1 <0>         0.0952
     40 H10         7.7246   -2.4775   -2.2141 H         1 <0>         0.0811
     41 H11         7.7419   -2.1980   -0.4559 H         1 <0>         0.0464
     42 H12         6.7051   -5.6141    0.3623 H         1 <0>         0.0820
     43 H13         7.1456   -4.0326    1.0511 H         1 <0>         0.0448
     44 H14         4.6959   -4.3457    1.1115 H         1 <0>         0.0828
     45 H15         4.6785   -4.6253   -0.6467 H         1 <0>         0.0465
     46 H16         9.2027   -4.2604   -1.9494 H         1 <0>         0.0787
     47 H17         9.2210   -4.2698   -0.1696 H         1 <0>         0.0376
     48 H18         8.2310   -6.5433   -0.1715 H         1 <0>         0.0828
     49 H19         8.2127   -6.5338   -1.9513 H         1 <0>         0.0931
     50 H20        10.2780   -6.6710   -3.2164 H         1 <0>         0.1446
     51 H21        12.6105   -7.4522   -3.2540 H         1 <0>         0.1423
     52 H22        12.6483   -7.4940    1.0305 H         1 <0>         0.1203
     53 H23        10.3189   -6.7027    1.0493 H         1 <0>         0.1391
     54 H24        14.3164   -8.0141   -3.2772 H         1 <0>         0.1804
     55 H25        16.6714   -8.8031   -3.2831 H         1 <0>         0.1780
     56 H26        17.8004   -9.2065   -1.1103 H         1 <0>         0.1809
     57 H27        17.6187   -9.1738    1.2899 H         1 <0>         0.4414
     58 H28        16.2156   -8.7125    2.0907 H         1 <0>         0.4205
     59 H29        14.3558   -8.0653    0.8515 H         1 <0>         0.4363
@<TRIPOS>BOND
     1    1    6 ar
     2    1    2 ar
     3    1   31 1
     4    2    3 ar
     5    2   32 1
     6    3    4 ar
     7    3   33 1
     8    4    5 ar
     9    4    7 1
    10    5    6 ar
    11    5   34 1
    12    6   35 1
    13    7    8 2
    14    7    9 1
    15    9   10 1
    16    9   36 1
    17    9   37 1
    18   10   15 1
    19   10   11 1
    20   11   12 1
    21   11   38 1
    22   11   39 1
    23   12   13 1
    24   12   40 1
    25   12   41 1
    26   13   14 1
    27   13   16 1
    28   14   15 1
    29   14   42 1
    30   14   43 1
    31   15   44 1
    32   15   45 1
    33   16   17 1
    34   16   46 1
    35   16   47 1
    36   17   18 1
    37   17   48 1
    38   17   49 1
    39   18   23 ar
    40   18   19 ar
    41   19   20 ar
    42   19   50 1
    43   20   21 ar
    44   20   51 1
    45   21   22 ar
    46   21   24 1
    47   22   23 ar
    48   22   52 1
    49   23   53 1
    50   24   29 ar
    51   24   25 ar
    52   25   26 ar
    53   25   54 1
    54   26   27 ar
    55   26   55 1
    56   27   28 ar
    57   27   56 1
    58   28   29 ar
    59   28   30 1
    60   29   59 1
    61   30   57 1
    62   30   58 1
@<TRIPOS>MOLECULE
CHEMBL40391__2
   59    62     0     0     0
SMALL
USER_CHARGES

@<TRIPOS>ATOM
      1 C1         -0.0167    1.3798    0.0096 C.ar      1 <0>        -0.0781
      2 C2          1.1680    2.0953    0.0022 C.ar      1 <0>        -0.1291
      3 C3          2.3774    1.4332   -0.0134 C.ar      1 <0>        -0.0563
      4 C4          2.4048    0.0349   -0.0211 C.ar      1 <0>        -0.1814
      5 C5          1.2034   -0.6808   -0.0130 C.ar      1 <0>        -0.0756
      6 C6          0.0021   -0.0041    0.0020 C.ar      1 <0>        -0.1306
      7 C7          3.6913   -0.6795   -0.0381 C.2       1 <0>         0.4023
      8 O1          4.7311   -0.0559   -0.0455 O.2       1 <0>        -0.4368
      9 C8          3.7163   -2.1863   -0.0464 C.3       1 <0>         0.0088
     10 N1          5.1092   -2.6528   -0.0632 N.3       1 <0>        -0.5282
     11 C9          5.7708   -2.2905   -1.3246 C.3       1 <0>         0.0186
     12 C10         7.2327   -2.7405   -1.2779 C.3       1 <0>         0.0014
     13 N2          7.2914   -4.1940   -1.0742 N.4       1 <0>        -0.3874
     14 C11         6.6485   -4.5378    0.2009 C.3       1 <0>        -0.0061
     15 C12         5.1818   -4.1027    0.1666 C.3       1 <0>         0.0260
     16 C13         8.6946   -4.6281   -1.0476 C.3       1 <0>        -0.0058
     17 C14         8.7546   -6.1544   -0.9606 C.3       1 <0>        -0.0996
     18 C15        10.1941   -6.5998   -0.9333 C.ar      1 <0>        -0.1008
     19 C16        10.8555   -6.8661   -2.1185 C.ar      1 <0>        -0.1136
     20 C17        12.1738   -7.2743   -2.0995 C.ar      1 <0>        -0.0761
     21 C18        12.8385   -7.4179   -0.8831 C.ar      1 <0>        -0.0260
     22 C19        12.1671   -7.1482    0.3080 C.ar      1 <0>        -0.0954
     23 C20        10.8505   -6.7352    0.2767 C.ar      1 <0>        -0.1107
     24 C21        14.2552   -7.8567   -0.8561 C.ar      1 <0>         0.2003
     25 C22        14.9085   -8.0027    0.3641 C.ar      1 <0>        -0.2187
     26 C23        16.2321   -8.4137    0.3785 C.ar      1 <0>        -0.0290
     27 C24        16.8609   -8.6658   -0.8290 C.ar      1 <0>        -0.2320
     28 C25        16.1507   -8.5005   -2.0143 C.ar      1 <0>         0.4116
     29 N3         14.8862   -8.1117   -1.9959 N.ar      1 <0>        -0.5397
     30 N4         16.7751   -8.7513   -3.2306 N.pl3     1 <0>        -0.8497
     31 H1         -0.9607    1.9041    0.0260 H         1 <0>         0.1328
     32 H2          1.1452    3.1750    0.0081 H         1 <0>         0.1341
     33 H3          3.3011    1.9929   -0.0199 H         1 <0>         0.1349
     34 H4          1.2164   -1.7607   -0.0192 H         1 <0>         0.1287
     35 H5         -0.9266   -0.5553    0.0082 H         1 <0>         0.1331
     36 H6          3.2178   -2.5629    0.8468 H         1 <0>         0.1240
     37 H7          3.1995   -2.5534   -0.9331 H         1 <0>         0.0832
     38 H8          5.2650   -2.7829   -2.1551 H         1 <0>         0.0590
     39 H9          5.7271   -1.2099   -1.4609 H         1 <0>         0.1348
     40 H10         7.7215   -2.4854   -2.2182 H         1 <0>         0.1364
     41 H11         7.7416   -2.2375   -0.4557 H         1 <0>         0.1399
     42 H12         6.7044   -5.6151    0.3571 H         1 <0>         0.1383
     43 H13         7.1605   -4.0256    1.0156 H         1 <0>         0.1395
     44 H14         4.7085   -4.3442    1.1183 H         1 <0>         0.1252
     45 H15         4.6663   -4.6250   -0.6394 H         1 <0>         0.0628
     46 H16         9.1949   -4.2960   -1.9572 H         1 <0>         0.1333
     47 H17         9.1925   -4.1948   -0.1801 H         1 <0>         0.1333
     48 H18         8.2542   -6.4865   -0.0509 H         1 <0>         0.0953
     49 H19         8.2567   -6.5877   -1.8280 H         1 <0>         0.0947
     50 H20        10.3393   -6.7548   -3.0606 H         1 <0>         0.1265
     51 H21        12.6891   -7.4823   -3.0255 H         1 <0>         0.1397
     52 H22        12.6774   -7.2578    1.2535 H         1 <0>         0.1348
     53 H23        10.3307   -6.5213    1.1989 H         1 <0>         0.1280
     54 H24        14.3901   -7.7977    1.2892 H         1 <0>         0.1343
     55 H25        16.7620   -8.5343    1.3118 H         1 <0>         0.1393
     56 H26        17.8918   -8.9871   -0.8508 H         1 <0>         0.1353
     57 H27        17.7010   -9.0398   -3.2500 H         1 <0>         0.4117
     58 H28        16.2850   -8.6377   -4.0599 H         1 <0>         0.4049
     59 H29         6.8102   -4.6590   -1.8294 H         1 <0>         0.4196
@<TRIPOS>BOND
     1    1    6 ar
     2    1    2 ar
     3    1   31 1
     4    2    3 ar
     5    2   32 1
     6    3    4 ar
     7    3   33 1
     8    4    5 ar
     9    4    7 1
    10    5    6 ar
    11    5   34 1
    12    6   35 1
    13    7    8 2
    14    7    9 1
    15    9   10 1
    16    9   36 1
    17    9   37 1
    18   10   15 1
    19   10   11 1
    20   11   12 1
    21   11   38 1
    22   11   39 1
    23   12   13 1
    24   12   40 1
    25   12   41 1
    26   13   14 1
    27   13   16 1
    28   13   59 1
    29   14   15 1
    30   14   42 1
    31   14   43 1
    32   15   44 1
    33   15   45 1
    34   16   17 1
    35   16   46 1
    36   16   47 1
    37   17   18 1
    38   17   48 1
    39   17   49 1
    40   18   23 ar
    41   18   19 ar
    42   19   20 ar
    43   19   50 1
    44   20   21 ar
    45   20   51 1
    46   21   22 ar
    47   21   24 1
    48   22   23 ar
    49   22   52 1
    50   23   53 1
    51   24   29 ar
    52   24   25 ar
    53   25   26 ar
    54   25   54 1
    55   26   27 ar
    56   26   55 1
    57   27   28 ar
    58   27   56 1
    59   28   29 ar
    60   28   30 1
    61   30   57 1
    62   30   58 1
@<TRIPOS>MOLECULE
CHEMBL416696
   29    31     0     0     0
SMALL
USER_CHARGES

@<TRIPOS>ATOM
      1 C1         -0.0167    1.3781    0.0096 C.ar      1 <0>        -0.0970
      2 C2          1.1709    2.0855    0.0021 C.ar      1 <0>        -0.1084
      3 C3          2.3773    1.4107   -0.0130 C.ar      1 <0>        -0.0944
      4 C4          2.3960    0.0285   -0.0201 C.ar      1 <0>        -0.1371
      5 C5          1.2084   -0.6789   -0.0117 C.ar      1 <0>        -0.1130
      6 C6          0.0021   -0.0041    0.0020 C.ar      1 <0>        -0.1117
      7 C7          3.7112   -0.7071   -0.0376 C.3       1 <0>         0.1826
      8 C8          4.0413   -1.0992   -1.4813 C.3       1 <0>        -0.0603
      9 C9          3.2109   -2.2882   -1.8495 C.2       1 <0>        -0.1852
     10 C10         2.7807   -3.2308   -0.9400 C.2       1 <0>        -0.2037
     11 C11         2.0259   -4.2888   -1.4586 C.2       1 <0>        -0.1158
     12 C12         1.7859   -4.2775   -2.7889 C.2       1 <0>        -0.1986
     13 S1          2.6154   -2.7886   -3.3171 S.3       1 <0>         0.3428
     14 C13         3.1500   -3.0253    0.4927 C.cat     1 <0>         0.6070
     15 N1          3.6169   -1.8623    0.8428 N.pl3     1 <0>        -0.6162
     16 N2          3.0003   -4.0374    1.4165 N.pl3     1 <0>        -0.7883
     17 H1         -0.9591    1.9053    0.0259 H         1 <0>         0.1328
     18 H2          1.1563    3.1654    0.0076 H         1 <0>         0.1351
     19 H3          3.3051    1.9634   -0.0196 H         1 <0>         0.1334
     20 H4          1.2231   -1.7588   -0.0176 H         1 <0>         0.1126
     21 H5         -0.9258   -0.5567    0.0082 H         1 <0>         0.1289
     22 H6          4.4917   -0.0430    0.3337 H         1 <0>         0.1445
     23 H7          3.8103   -0.2692   -2.1490 H         1 <0>         0.1303
     24 H8          5.0988   -1.3513   -1.5605 H         1 <0>         0.1205
     25 H9          1.6522   -5.0791   -0.8246 H         1 <0>         0.1530
     26 H10         1.2319   -4.9899   -3.3823 H         1 <0>         0.2071
     27 H11         2.6505   -4.8988    1.1398 H         1 <0>         0.4422
     28 H12         3.2447   -3.8883    2.3433 H         1 <0>         0.4288
     29 H13         3.9244   -1.7576    1.7569 H         1 <0>         0.4281
@<TRIPOS>BOND
     1    1    6 ar
     2    1    2 ar
     3    1   17 1
     4    2    3 ar
     5    2   18 1
     6    3    4 ar
     7    3   19 1
     8    4    5 ar
     9    4    7 1
    10    5    6 ar
    11    5   20 1
    12    6   21 1
    13    7   15 1
    14    7    8 1
    15    7   22 1
    16    8    9 1
    17    8   23 1
    18    8   24 1
    19    9   13 1
    20    9   10 2
    21   10   11 1
    22   10   14 1
    23   11   12 2
    24   11   25 1
    25   12   13 1
    26   12   26 1
    27   14   15 2
    28   14   16 1
    29   15   29 1
    30   16   27 1
    31   16   28 1
@<TRIPOS>MOLECULE
CHEMBL416696__1
   29    31     0     0     0
SMALL
USER_CHARGES

@<TRIPOS>ATOM
      1 C1         -0.0167    1.3781    0.0096 C.ar      1 <0>        -0.0970
      2 C2          1.1709    2.0855    0.0021 C.ar      1 <0>        -0.1084
      3 C3          2.3773    1.4107   -0.0130 C.ar      1 <0>        -0.0944
      4 C4          2.3960    0.0285   -0.0201 C.ar      1 <0>        -0.1371
      5 C5          1.2084   -0.6789   -0.0117 C.ar      1 <0>        -0.1130
      6 C6          0.0021   -0.0041    0.0020 C.ar      1 <0>        -0.1117
      7 C7          3.7112   -0.7071   -0.0376 C.3       1 <0>         0.1826
      8 C8          4.0714   -1.1136    1.3949 C.3       1 <0>        -0.0603
      9 C9          3.2489   -2.3063    1.7685 C.2       1 <0>        -0.1853
     10 C10         2.7995   -3.2398    0.8590 C.2       1 <0>        -0.2036
     11 C11         2.0558   -4.3030    1.3827 C.2       1 <0>        -0.1158
     12 C12         1.8437   -4.3051    2.7178 C.2       1 <0>        -0.1985
     13 S1          2.6843   -2.8214    3.2432 S.3       1 <0>         0.3428
     14 C13         3.1387   -3.0199   -0.5791 C.cat     1 <0>         0.6070
     15 N1          3.5983   -1.8535   -0.9273 N.pl3     1 <0>        -0.6162
     16 N2          2.9702   -4.0230   -1.5095 N.pl3     1 <0>        -0.7884
     17 H1         -0.9591    1.9053    0.0259 H         1 <0>         0.1328
     18 H2          1.1563    3.1654    0.0076 H         1 <0>         0.1351
     19 H3          3.3051    1.9634   -0.0196 H         1 <0>         0.1334
     20 H4          1.2231   -1.7588   -0.0176 H         1 <0>         0.1126
     21 H5         -0.9258   -0.5567    0.0082 H         1 <0>         0.1289
     22 H6          4.4838   -0.0393   -0.4185 H         1 <0>         0.1445
     23 H7          5.1303   -1.3663    1.4494 H         1 <0>         0.1205
     24 H8          3.8546   -0.2903    2.0756 H         1 <0>         0.1303
     25 H9          1.6682   -5.0867    0.7486 H         1 <0>         0.1531
     26 H10         1.3020   -5.0233    3.3154 H         1 <0>         0.2071
     27 H11         2.6268   -4.8873   -1.2340 H         1 <0>         0.4422
     28 H12         3.1951   -3.8645   -2.4397 H         1 <0>         0.4287
     29 H13         3.8863   -1.7395   -1.8466 H         1 <0>         0.4281
@<TRIPOS>BOND
     1    1    6 ar
     2    1    2 ar
     3    1   17 1
     4    2    3 ar
     5    2   18 1
     6    3    4 ar
     7    3   19 1
     8    4    5 ar
     9    4    7 1
    10    5    6 ar
    11    5   20 1
    12    6   21 1
    13    7   15 1
    14    7    8 1
    15    7   22 1
    16    8    9 1
    17    8   23 1
    18    8   24 1
    19    9   13 1
    20    9   10 2
    21   10   11 1
    22   10   14 1
    23   11   12 2
    24   11   25 1
    25   12   13 1
    26   12   26 1
    27   14   15 2
    28   14   16 1
    29   15   29 1
    30   16   27 1
    31   16   28 1
@<TRIPOS>MOLECULE
CHEMBL8105
   26    28     0     0     0
SMALL
USER_CHARGES

@<TRIPOS>ATOM
      1 C1         -0.0169    1.3942    0.0097 C.2       1 <0>        -0.1154
      2 C2          1.1783    2.0258    0.0017 C.2       1 <0>        -0.1986
      3 S1          2.3320    0.6646   -0.0159 S.3       1 <0>         0.3393
      4 C3          1.2488   -0.5945   -0.0052 C.2       1 <0>        -0.1859
      5 C4          0.0021   -0.0041    0.0020 C.2       1 <0>        -0.1977
      6 C5         -1.1859   -0.9096    0.0222 C.cat     1 <0>         0.6093
      7 N1         -1.0006   -2.1674   -0.2562 N.pl3     1 <0>        -0.6209
      8 C6          0.2679   -2.7423   -0.6806 C.3       1 <0>         0.1645
      9 C7          1.4654   -2.0750    0.0044 C.3       1 <0>        -0.0609
     10 C8          0.4060   -2.5760   -2.1953 C.3       1 <0>        -0.1865
     11 C9         -0.6336   -1.7092   -2.9085 C.3       1 <0>        -0.1741
     12 C10        -0.6593   -3.2296   -3.0778 C.3       1 <0>        -0.1637
     13 N2         -2.4408   -0.4275    0.3269 N.pl3     1 <0>        -0.7899
     14 H1         -0.9456    1.9453    0.0259 H         1 <0>         0.1520
     15 H2          1.3832    3.0861    0.0051 H         1 <0>         0.2067
     16 H3          0.2715   -3.8058   -0.4417 H         1 <0>         0.1419
     17 H4          2.3796   -2.3158   -0.5380 H         1 <0>         0.1305
     18 H5          1.5441   -2.4279    1.0327 H         1 <0>         0.1175
     19 H6          1.4277   -2.5514   -2.5743 H         1 <0>         0.1360
     20 H7         -1.4160   -1.2574   -2.2987 H         1 <0>         0.0822
     21 H8         -0.2959   -1.1140   -3.7570 H         1 <0>         0.1084
     22 H9         -0.3385   -3.6347   -4.0376 H         1 <0>         0.1115
     23 H10        -1.4585   -3.7781   -2.5793 H         1 <0>         0.0973
     24 H11        -2.5625    0.5127    0.5325 H         1 <0>         0.4424
     25 H12        -3.2022   -1.0283    0.3358 H         1 <0>         0.4281
     26 H13        -1.7613   -2.7638   -0.1756 H         1 <0>         0.4260
@<TRIPOS>BOND
     1    1    5 1
     2    1    2 2
     3    1   14 1
     4    2    3 1
     5    2   15 1
     6    3    4 1
     7    4    9 1
     8    4    5 2
     9    5    6 1
    10    6    7 2
    11    6   13 1
    12    7    8 1
    13    7   26 1
    14    8    9 1
    15    8   10 1
    16    8   16 1
    17    9   17 1
    18    9   18 1
    19   10   12 1
    20   10   11 1
    21   10   19 1
    22   11   12 1
    23   11   20 1
    24   11   21 1
    25   12   22 1
    26   12   23 1
    27   13   24 1
    28   13   25 1
@<TRIPOS>MOLECULE
CHEMBL8105__1
   26    28     0     0     0
SMALL
USER_CHARGES

@<TRIPOS>ATOM
      1 C1         -0.0169    1.3942    0.0097 C.2       1 <0>        -0.1158
      2 C2          1.1783    2.0258    0.0017 C.2       1 <0>        -0.1984
      3 S1          2.3320    0.6646   -0.0174 S.3       1 <0>         0.3390
      4 C3          1.2487   -0.5944   -0.0209 C.2       1 <0>        -0.1907
      5 C4          0.0021   -0.0041    0.0020 C.2       1 <0>        -0.1983
      6 C5         -1.1861   -0.9094   -0.0052 C.cat     1 <0>         0.6095
      7 N1         -0.9957   -2.1701    0.2561 N.pl3     1 <0>        -0.6165
      8 C6          0.2808   -2.7496    0.6491 C.3       1 <0>         0.1645
      9 C7          1.4649   -2.0747   -0.0505 C.3       1 <0>        -0.0602
     10 C8          0.4485   -2.6005    2.1625 C.3       1 <0>        -0.1997
     11 C9          0.8085   -3.8553    2.9605 C.3       1 <0>        -0.1508
     12 C10        -0.5993   -3.2642    3.0583 C.3       1 <0>        -0.1716
     13 N2         -2.4467   -0.4240   -0.2799 N.pl3     1 <0>        -0.7897
     14 H1         -0.9456    1.9453    0.0259 H         1 <0>         0.1526
     15 H2          1.3832    3.0861    0.0058 H         1 <0>         0.2070
     16 H3          0.2797   -3.8103    0.3981 H         1 <0>         0.1363
     17 H4          1.5239   -2.4165   -1.0839 H         1 <0>         0.1172
     18 H5          2.3893   -2.3212    0.4717 H         1 <0>         0.1312
     19 H6          0.8695   -1.6525    2.4977 H         1 <0>         0.1189
     20 H7          0.9257   -4.7871    2.4073 H         1 <0>         0.1068
     21 H8          1.4665   -3.7331    3.8208 H         1 <0>         0.1107
     22 H9         -0.8675   -2.7531    3.9829 H         1 <0>         0.1060
     23 H10        -1.4082   -3.8071    2.5694 H         1 <0>         0.0971
     24 H11        -2.5723    0.5183   -0.4724 H         1 <0>         0.4417
     25 H12        -3.2083   -1.0249   -0.2806 H         1 <0>         0.4279
     26 H13        -1.7579   -2.7657    0.1836 H         1 <0>         0.4252
@<TRIPOS>BOND
     1    1    5 1
     2    1    2 2
     3    1   14 1
     4    2    3 1
     5    2   15 1
     6    3    4 1
     7    4    9 1
     8    4    5 2
     9    5    6 1
    10    6    7 2
    11    6   13 1
    12    7    8 1
    13    7   26 1
    14    8    9 1
    15    8   10 1
    16    8   16 1
    17    9   17 1
    18    9   18 1
    19   10   12 1
    20   10   11 1
    21   10   19 1
    22   11   12 1
    23   11   20 1
    24   11   21 1
    25   12   22 1
    26   12   23 1
    27   13   24 1
    28   13   25 1
@<TRIPOS>MOLECULE
CHEMBL544793
   32    33     0     0     0
SMALL
USER_CHARGES

@<TRIPOS>ATOM
      1 C1         -0.0473    1.3862   -0.2726 C.ar      1 <0>        -0.0801
      2 C2         -0.2697    1.8880   -1.5465 C.ar      1 <0>        -0.1414
      3 C3         -0.3958    1.0103   -2.6098 C.ar      1 <0>         0.1053
      4 N1         -0.3080   -0.2900   -2.4271 N.ar      1 <0>        -0.4674
      5 C4         -0.0959   -0.8113   -1.2244 C.ar      1 <0>         0.1288
      6 C5          0.0413    0.0140   -0.1089 C.ar      1 <0>        -0.1052
      7 C6         -0.0044   -2.2796   -1.0668 C.2       1 <0>         0.5051
      8 N2         -0.1391   -3.0998   -2.1647 N.pl3     1 <0>        -0.8525
      9 N3          0.2048   -2.7997    0.1180 N.2       1 <0>        -0.5851
     10 C7          0.4103   -4.1459    0.2474 C.ar      1 <0>         0.1447
     11 C8          1.4477   -4.7679   -0.4518 C.ar      1 <0>        -0.1447
     12 C9          1.6493   -6.1254   -0.3162 C.ar      1 <0>        -0.0879
     13 C10         0.8268   -6.8714    0.5098 C.ar      1 <0>        -0.1228
     14 C11        -0.2024   -6.2621    1.2053 C.ar      1 <0>        -0.1471
     15 C12        -0.4122   -4.9040    1.0837 C.ar      1 <0>        -0.1121
     16 C13        -1.0930   -7.0830    2.1018 C.3       1 <0>         0.0484
     17 N4         -0.5262   -7.1173    3.4566 N.4       1 <0>        -0.6365
     18 H1          0.0589    2.0509    0.5719 H         1 <0>         0.1466
     19 H2         -0.3441    2.9533   -1.7074 H         1 <0>         0.1467
     20 H3         -0.5690    1.3982   -3.6028 H         1 <0>         0.1689
     21 H4          0.2141   -0.4109    0.8689 H         1 <0>         0.1520
     22 H5         -0.3293   -2.7171   -3.0355 H         1 <0>         0.4166
     23 H6          2.0899   -4.1871   -1.0973 H         1 <0>         0.1308
     24 H7          2.4508   -6.6075   -0.8561 H         1 <0>         0.1354
     25 H8          0.9888   -7.9343    0.6117 H         1 <0>         0.1307
     26 H9         -1.2132   -4.4290    1.6306 H         1 <0>         0.1331
     27 H10        -2.0866   -6.6360    2.1349 H         1 <0>         0.1389
     28 H11        -1.1643   -8.0985    1.7120 H         1 <0>         0.1405
     29 H12        -1.1225   -7.6669    4.0569 H         1 <0>         0.4373
     30 H13         0.3936   -7.5311    3.4260 H         1 <0>         0.4348
     31 H14        -0.4602   -6.1773    3.8175 H         1 <0>         0.4355
     32 H15        -0.0438   -4.0602   -2.0674 H         1 <0>         0.4029
@<TRIPOS>BOND
     1    1    6 ar
     2    1    2 ar
     3    1   18 1
     4    2    3 ar
     5    2   19 1
     6    3    4 ar
     7    3   20 1
     8    4    5 ar
     9    5    6 ar
    10    5    7 1
    11    6   21 1
    12    7    8 1
    13    7    9 2
    14    8   22 1
    15    8   32 1
    16    9   10 1
    17   10   15 ar
    18   10   11 ar
    19   11   12 ar
    20   11   23 1
    21   12   13 ar
    22   12   24 1
    23   13   14 ar
    24   13   25 1
    25   14   15 ar
    26   14   16 1
    27   15   26 1
    28   16   17 1
    29   16   27 1
    30   16   28 1
    31   17   29 1
    32   17   30 1
    33   17   31 1
@<TRIPOS>MOLECULE
CHEMBL544793__1
   32    33     0     0     0
SMALL
USER_CHARGES

@<TRIPOS>ATOM
      1 C1          0.0915    1.3459    0.8693 C.ar      1 <0>        -0.0657
      2 C2          0.9931    2.0014    0.0442 C.ar      1 <0>        -0.1485
      3 C3          2.0046    1.2790   -0.5651 C.ar      1 <0>         0.1078
      4 N1          2.1202   -0.0177   -0.3713 N.ar      1 <0>        -0.4697
      5 C4          1.2788   -0.6822    0.4102 C.ar      1 <0>         0.0946
      6 C5          0.2374   -0.0190    1.0551 C.ar      1 <0>        -0.1420
      7 C6          1.4482   -2.1430    0.5983 C.2       1 <0>         0.4690
      8 N2          0.6259   -2.8002    1.3638 N.2       1 <0>        -0.7324
      9 N3          2.4768   -2.8053   -0.0376 N.pl3     1 <0>        -0.6491
     10 C7          2.5674   -4.1980    0.0438 C.ar      1 <0>         0.1829
     11 C8          1.4138   -4.9721    0.0391 C.ar      1 <0>        -0.0790
     12 C9          1.5068   -6.3474    0.1197 C.ar      1 <0>        -0.0946
     13 C10         2.7466   -6.9544    0.2050 C.ar      1 <0>        -0.1155
     14 C11         3.8967   -6.1869    0.2105 C.ar      1 <0>        -0.1511
     15 C12         3.8110   -4.8110    0.1239 C.ar      1 <0>        -0.1338
     16 C13         5.2454   -6.8527    0.3042 C.3       1 <0>         0.0499
     17 N4          5.7416   -7.1460   -1.0470 N.4       1 <0>        -0.6369
     18 H1         -0.7035    1.8882    1.3595 H         1 <0>         0.1478
     19 H2          0.9067    3.0651   -0.1217 H         1 <0>         0.1472
     20 H3          2.7082    1.7862   -1.2086 H         1 <0>         0.1676
     21 H4         -0.4466   -0.5612    1.6912 H         1 <0>         0.1399
     22 H5          3.1376   -2.3050   -0.5415 H         1 <0>         0.4273
     23 H6          0.4453   -4.4987   -0.0272 H         1 <0>         0.1441
     24 H7          0.6103   -6.9498    0.1164 H         1 <0>         0.1367
     25 H8          2.8165   -8.0303    0.2680 H         1 <0>         0.1305
     26 H9          4.7099   -4.2124    0.1230 H         1 <0>         0.1319
     27 H10         5.9443   -6.1877    0.8115 H         1 <0>         0.1384
     28 H11         5.1538   -7.7815    0.8672 H         1 <0>         0.1405
     29 H12         6.6446   -7.5918   -0.9843 H         1 <0>         0.4368
     30 H13         5.0945   -7.7616   -1.5166 H         1 <0>         0.4348
     31 H14         5.8264   -6.2862   -1.5682 H         1 <0>         0.4341
     32 H15        -0.0978   -2.3343    1.8111 H         1 <0>         0.3567
@<TRIPOS>BOND
     1    1    6 ar
     2    1    2 ar
     3    1   18 1
     4    2    3 ar
     5    2   19 1
     6    3    4 ar
     7    3   20 1
     8    4    5 ar
     9    5    6 ar
    10    5    7 1
    11    6   21 1
    12    7    8 2
    13    7    9 1
    14    8   32 1
    15    9   10 1
    16    9   22 1
    17   10   15 ar
    18   10   11 ar
    19   11   12 ar
    20   11   23 1
    21   12   13 ar
    22   12   24 1
    23   13   14 ar
    24   13   25 1
    25   14   15 ar
    26   14   16 1
    27   15   26 1
    28   16   17 1
    29   16   27 1
    30   16   28 1
    31   17   29 1
    32   17   30 1
    33   17   31 1
@<TRIPOS>MOLECULE
CHEMBL544793__2
   32    33     0     0     0
SMALL
USER_CHARGES

@<TRIPOS>ATOM
      1 C1          1.0489    1.5143    1.7105 C.ar      1 <0>        -0.0772
      2 C2          2.0403    2.0978    0.9359 C.ar      1 <0>        -0.1466
      3 C3          2.8106    1.3009    0.1065 C.ar      1 <0>         0.1029
      4 N1          2.6139    0.0010    0.0447 N.ar      1 <0>        -0.4761
      5 C4          1.6762   -0.5961    0.7690 C.ar      1 <0>         0.1398
      6 C5          0.8642    0.1441    1.6252 C.ar      1 <0>        -0.1072
      7 C6          1.4909   -2.0634    0.6660 C.2       1 <0>         0.4668
      8 N2          0.5728   -2.6547    1.3741 N.2       1 <0>        -0.7241
      9 N3          2.2912   -2.8017   -0.1800 N.pl3     1 <0>        -0.6946
     10 C7          2.0368   -4.1628   -0.3722 C.ar      1 <0>         0.1691
     11 C8          0.7289   -4.6173   -0.4854 C.ar      1 <0>        -0.1298
     12 C9          0.4810   -5.9623   -0.6751 C.ar      1 <0>        -0.0798
     13 C10         1.5331   -6.8568   -0.7526 C.ar      1 <0>        -0.1145
     14 C11         2.8360   -6.4078   -0.6399 C.ar      1 <0>        -0.1408
     15 C12         3.0912   -5.0628   -0.4561 C.ar      1 <0>        -0.1271
     16 C13         3.9792   -7.3861   -0.7243 C.3       1 <0>         0.0481
     17 N4          4.4061   -7.5207   -2.1235 N.4       1 <0>        -0.6367
     18 H1          0.4376    2.1140    2.3686 H         1 <0>         0.1466
     19 H2          2.2095    3.1636    0.9791 H         1 <0>         0.1452
     20 H3          3.5833    1.7521   -0.4983 H         1 <0>         0.1662
     21 H4          0.1016   -0.3434    2.2144 H         1 <0>         0.1538
     22 H5          0.5092   -3.6226    1.3748 H         1 <0>         0.3468
     23 H6          3.0308   -2.3766   -0.6418 H         1 <0>         0.4202
     24 H7         -0.0931   -3.9194   -0.4247 H         1 <0>         0.1405
     25 H8         -0.5355   -6.3164   -0.7629 H         1 <0>         0.1427
     26 H9          1.3365   -7.9083   -0.9010 H         1 <0>         0.1361
     27 H10         4.1093   -4.7121   -0.3733 H         1 <0>         0.1369
     28 H11         4.8130   -7.0234   -0.1233 H         1 <0>         0.1408
     29 H12         3.6554   -8.3566   -0.3483 H         1 <0>         0.1431
     30 H13         3.6343   -7.8565   -2.6798 H         1 <0>         0.4354
     31 H14         4.7058   -6.6223   -2.4716 H         1 <0>         0.4348
     32 H15         5.1715   -8.1757   -2.1800 H         1 <0>         0.4387
@<TRIPOS>BOND
     1    1    6 ar
     2    1    2 ar
     3    1   18 1
     4    2    3 ar
     5    2   19 1
     6    3    4 ar
     7    3   20 1
     8    4    5 ar
     9    5    6 ar
    10    5    7 1
    11    6   21 1
    12    7    8 2
    13    7    9 1
    14    8   22 1
    15    9   10 1
    16    9   23 1
    17   10   15 ar
    18   10   11 ar
    19   11   12 ar
    20   11   24 1
    21   12   13 ar
    22   12   25 1
    23   13   14 ar
    24   13   26 1
    25   14   15 ar
    26   14   16 1
    27   15   27 1
    28   16   17 1
    29   16   28 1
    30   16   29 1
    31   17   30 1
    32   17   31 1
    33   17   32 1
@<TRIPOS>MOLECULE
CHEMBL544793__3
   33    34     0     0     0
SMALL
USER_CHARGES

@<TRIPOS>ATOM
      1 C1          1.0341    1.4988    1.7301 C.ar      1 <0>        -0.0626
      2 C2          2.0225    2.0919    0.9590 C.ar      1 <0>        -0.0945
      3 C3          2.7966    1.3039    0.1246 C.ar      1 <0>         0.1249
      4 N1          2.6062    0.0034    0.0548 N.ar      1 <0>        -0.4491
      5 C4          1.6716   -0.6027    0.7756 C.ar      1 <0>         0.0534
      6 C5          0.8561    0.1283    1.6364 C.ar      1 <0>        -0.1037
      7 C6          1.4934   -2.0702    0.6635 C.cat     1 <0>         0.6122
      8 N2          0.5783   -2.6704    1.3681 N.pl3     1 <0>        -0.7288
      9 N3          2.2972   -2.7993   -0.1871 N.pl3     1 <0>        -0.5995
     10 C7          2.0495   -4.1605   -0.3876 C.ar      1 <0>         0.0915
     11 C8          0.7438   -4.6207   -0.5036 C.ar      1 <0>        -0.1273
     12 C9          0.5026   -5.9658   -0.7015 C.ar      1 <0>        -0.0733
     13 C10         1.5591   -6.8546   -0.7842 C.ar      1 <0>        -0.0751
     14 C11         2.8598   -6.3999   -0.6687 C.ar      1 <0>        -0.1325
     15 C12         3.1083   -5.0548   -0.4768 C.ar      1 <0>        -0.0875
     16 C13         4.0077   -7.3720   -0.7589 C.3       1 <0>         0.0426
     17 N4          4.4354   -7.4961   -2.1588 N.4       1 <0>        -0.6376
     18 H1          0.4200    2.0914    2.3920 H         1 <0>         0.1670
     19 H2          2.1865    3.1582    1.0087 H         1 <0>         0.1672
     20 H3          3.5669    1.7625   -0.4776 H         1 <0>         0.1877
     21 H4          0.0960   -0.3666    2.2227 H         1 <0>         0.1501
     22 H5          0.5199   -3.6386    1.3634 H         1 <0>         0.4368
     23 H6          3.0346   -2.3678   -0.6464 H         1 <0>         0.4579
     24 H7         -0.0816   -3.9273   -0.4387 H         1 <0>         0.1459
     25 H8         -0.5122   -6.3243   -0.7914 H         1 <0>         0.1590
     26 H9          1.3677   -7.9062   -0.9390 H         1 <0>         0.1530
     27 H10         4.1246   -4.6996   -0.3918 H         1 <0>         0.1521
     28 H11         4.8397   -7.0088   -0.1557 H         1 <0>         0.1477
     29 H12         3.6887   -8.3464   -0.3888 H         1 <0>         0.1516
     30 H13         5.2040   -8.1470   -2.2193 H         1 <0>         0.4465
     31 H14         3.6653   -7.8323   -2.7173 H         1 <0>         0.4380
     32 H15         4.7307   -6.5942   -2.5015 H         1 <0>         0.4356
     33 H16        -0.0453   -2.1494    1.8978 H         1 <0>         0.4506
@<TRIPOS>BOND
     1    1    6 ar
     2    1    2 ar
     3    1   18 1
     4    2    3 ar
     5    2   19 1
     6    3    4 ar
     7    3   20 1
     8    4    5 ar
     9    5    6 ar
    10    5    7 1
    11    6   21 1
    12    7    8 2
    13    7    9 1
    14    8   22 1
    15    8   33 1
    16    9   10 1
    17    9   23 1
    18   10   15 ar
    19   10   11 ar
    20   11   12 ar
    21   11   24 1
    22   12   13 ar
    23   12   25 1
    24   13   14 ar
    25   13   26 1
    26   14   15 ar
    27   14   16 1
    28   15   27 1
    29   16   17 1
    30   16   28 1
    31   16   29 1
    32   17   30 1
    33   17   31 1
    34   17   32 1
@<TRIPOS>MOLECULE
CHEMBL555794
   31    31     0     0     0
SMALL
USER_CHARGES

@<TRIPOS>ATOM
      1 C1          4.3722    2.0841   -3.6631 C.3       1 <0>        -0.1079
      2 S1          4.4628    0.2769   -3.5352 S.3       1 <0>        -0.2261
      3 C2          2.7552   -0.2243   -3.1835 C.3       1 <0>        -0.1300
      4 C3          2.6890   -1.7241   -3.0515 C.cat     1 <0>         0.5678
      5 N1          3.7614   -2.4335   -3.1905 N.pl3     1 <0>        -0.7170
      6 N2          1.4914   -2.3367   -2.7840 N.pl3     1 <0>        -0.6075
      7 C4          1.4038   -3.7324   -2.7875 C.ar      1 <0>         0.0917
      8 C5          0.6032   -4.3819   -1.8564 C.ar      1 <0>        -0.0743
      9 C6          0.5189   -5.7602   -1.8626 C.ar      1 <0>        -0.0722
     10 C7          1.2309   -6.4939   -2.7940 C.ar      1 <0>        -0.0728
     11 C8          2.0286   -5.8505   -3.7221 C.ar      1 <0>        -0.1319
     12 C9          2.1125   -4.4718   -3.7253 C.ar      1 <0>        -0.1435
     13 C10         2.8030   -6.6541   -4.7349 C.3       1 <0>         0.0417
     14 N3          1.9825   -6.8467   -5.9380 N.4       1 <0>        -0.6375
     15 H1          3.6899    2.3576   -4.4679 H         1 <0>         0.0974
     16 H2          4.0085    2.4972   -2.7223 H         1 <0>         0.0986
     17 H3          5.3638    2.4834   -3.8760 H         1 <0>         0.1279
     18 H4          2.4255    0.2373   -2.2527 H         1 <0>         0.1620
     19 H5          2.1069    0.0977   -3.9984 H         1 <0>         0.1597
     20 H6          3.7382   -3.3872   -3.0151 H         1 <0>         0.4307
     21 H7          0.7051   -1.8019   -2.5924 H         1 <0>         0.4558
     22 H8          0.0475   -3.8096   -1.1284 H         1 <0>         0.1568
     23 H9         -0.1034   -6.2658   -1.1390 H         1 <0>         0.1609
     24 H10         1.1638   -7.5719   -2.7962 H         1 <0>         0.1538
     25 H11         2.7320   -3.9696   -4.4536 H         1 <0>         0.1426
     26 H12         3.7165   -6.1216   -4.9995 H         1 <0>         0.1444
     27 H13         3.0584   -7.6249   -4.3100 H         1 <0>         0.1538
     28 H14         1.1368   -7.3396   -5.6931 H         1 <0>         0.4397
     29 H15         1.7461   -5.9481   -6.3313 H         1 <0>         0.4345
     30 H16         2.5010   -7.3847   -6.6161 H         1 <0>         0.4469
     31 H17         4.5890   -2.0118   -3.4703 H         1 <0>         0.4540
@<TRIPOS>BOND
     1    1    2 1
     2    1   15 1
     3    1   16 1
     4    1   17 1
     5    2    3 1
     6    3    4 1
     7    3   18 1
     8    3   19 1
     9    4    5 2
    10    4    6 1
    11    5   20 1
    12    5   31 1
    13    6    7 1
    14    6   21 1
    15    7   12 ar
    16    7    8 ar
    17    8    9 ar
    18    8   22 1
    19    9   10 ar
    20    9   23 1
    21   10   11 ar
    22   10   24 1
    23   11   12 ar
    24   11   13 1
    25   12   25 1
    26   13   14 1
    27   13   26 1
    28   13   27 1
    29   14   28 1
    30   14   29 1
    31   14   30 1
@<TRIPOS>MOLECULE
CHEMBL555794__1
   30    30     0     0     0
SMALL
USER_CHARGES

@<TRIPOS>ATOM
      1 C1          0.1422    1.8892   -0.3121 C.3       1 <0>        -0.1473
      2 S1          0.6321    0.1429   -0.3459 S.3       1 <0>        -0.1697
      3 C2         -0.8227   -0.7081   -1.0165 C.3       1 <0>        -0.0695
      4 C3         -0.5461   -2.1872   -1.0985 C.2       1 <0>         0.4567
      5 N1         -1.5051   -3.0369   -1.5774 N.pl3     1 <0>        -0.8651
      6 N2          0.6061   -2.6564   -0.7134 N.2       1 <0>        -0.5650
      7 C4          0.9040   -3.9823   -0.9009 C.ar      1 <0>         0.1400
      8 C5          0.8586   -4.5366   -2.1808 C.ar      1 <0>        -0.1446
      9 C6          1.1598   -5.8705   -2.3627 C.ar      1 <0>        -0.0889
     10 C7          1.5064   -6.6585   -1.2794 C.ar      1 <0>        -0.1233
     11 C8          1.5532   -6.1152   -0.0082 C.ar      1 <0>        -0.1472
     12 C9          1.2594   -4.7811    0.1865 C.ar      1 <0>        -0.1108
     13 C10         1.9317   -6.9808    1.1659 C.3       1 <0>         0.0485
     14 N3          3.3873   -6.9355    1.3587 N.4       1 <0>        -0.6365
     15 H1         -0.0968    2.2191   -1.3231 H         1 <0>         0.0787
     16 H2         -0.7336    2.0086    0.3256 H         1 <0>         0.0784
     17 H3          0.9627    2.4892    0.0815 H         1 <0>         0.1084
     18 H4         -1.6783   -0.5341   -0.3640 H         1 <0>         0.1131
     19 H5         -1.0415   -0.3236   -2.0127 H         1 <0>         0.1157
     20 H6         -2.3770   -2.6928   -1.8271 H         1 <0>         0.4076
     21 H7          0.5879   -3.9226   -3.0271 H         1 <0>         0.1302
     22 H8          1.1247   -6.3007   -3.3527 H         1 <0>         0.1349
     23 H9          1.7409   -7.7023   -1.4270 H         1 <0>         0.1304
     24 H10         1.3007   -4.3570    1.1789 H         1 <0>         0.1334
     25 H11         1.4347   -6.6131    2.0636 H         1 <0>         0.1389
     26 H12         1.6224   -8.0083    0.9744 H         1 <0>         0.1401
     27 H13         3.8474   -7.2759    0.5277 H         1 <0>         0.4348
     28 H14         3.6736   -5.9843    1.5360 H         1 <0>         0.4360
     29 H15         3.6407   -7.5150    2.1448 H         1 <0>         0.4372
     30 H16        -1.3133   -3.9835   -1.6674 H         1 <0>         0.4048
@<TRIPOS>BOND
     1    1    2 1
     2    1   15 1
     3    1   16 1
     4    1   17 1
     5    2    3 1
     6    3    4 1
     7    3   18 1
     8    3   19 1
     9    4    5 1
    10    4    6 2
    11    5   20 1
    12    5   30 1
    13    6    7 1
    14    7   12 ar
    15    7    8 ar
    16    8    9 ar
    17    8   21 1
    18    9   10 ar
    19    9   22 1
    20   10   11 ar
    21   10   23 1
    22   11   12 ar
    23   11   13 1
    24   12   24 1
    25   13   14 1
    26   13   25 1
    27   13   26 1
    28   14   27 1
    29   14   28 1
    30   14   29 1
@<TRIPOS>MOLECULE
CHEMBL43678
   47    49     0     0     0
SMALL
USER_CHARGES

@<TRIPOS>ATOM
      1 C1          0.8656   -0.3580   -0.9926 C.3       1 <0>        -0.0551
      2 N1         -0.0118   -0.0050    0.1314 N.4       1 <0>        -0.3892
      3 C2         -0.0444    1.4554    0.2873 C.3       1 <0>        -0.0490
      4 C3         -1.3695   -0.4996   -0.1331 C.3       1 <0>        -0.0027
      5 C4         -1.3621   -2.0295   -0.1432 C.3       1 <0>         0.0205
      6 O1         -1.0224   -2.5127    1.1580 O.3       1 <0>        -0.3181
      7 C5         -0.9712   -3.8603    1.3215 C.ar      1 <0>         0.1711
      8 C6         -1.2378   -4.6964    0.2466 C.ar      1 <0>        -0.2007
      9 C7         -1.1865   -6.0644    0.4078 C.ar      1 <0>        -0.0511
     10 C8         -0.8666   -6.6047    1.6517 C.ar      1 <0>        -0.1226
     11 C9         -0.5986   -5.7623    2.7327 C.ar      1 <0>        -0.0040
     12 C10        -0.6463   -4.3945    2.5641 C.ar      1 <0>        -0.1127
     13 C11        -0.3142   -3.7051    3.8703 C.3       1 <0>        -0.0782
     14 C12        -0.4810   -4.7915    4.9540 C.3       1 <0>        -0.1235
     15 C13        -0.2334   -6.0906    4.1645 C.3       1 <0>        -0.0980
     16 C14        -0.8111   -8.0758    1.8279 C.ar      1 <0>         0.2316
     17 C15         0.1904   -8.6388    2.6143 C.ar      1 <0>        -0.1606
     18 C16         0.2333  -10.0149    2.7726 C.ar      1 <0>         0.0421
     19 C17        -0.7272  -10.7854    2.1391 C.ar      1 <0>        -0.1954
     20 C18        -1.7014  -10.1603    1.3670 C.ar      1 <0>         0.4583
     21 N2         -1.7202   -8.8434    1.2387 N.ar      1 <0>        -0.5063
     22 N3         -2.6686  -10.9270    0.7277 N.pl3     1 <0>        -0.8189
     23 H1          1.8730    0.0089   -0.7963 H         1 <0>         0.1300
     24 H2          0.8897   -1.4416   -1.1082 H         1 <0>         0.1184
     25 H3          0.4851    0.0966   -1.9073 H         1 <0>         0.1272
     26 H4         -0.6804    1.7164    1.1331 H         1 <0>         0.1265
     27 H5          0.9658    1.8244    0.4649 H         1 <0>         0.1286
     28 H6         -0.4425    1.9089   -0.6204 H         1 <0>         0.1255
     29 H7         -2.0438   -0.1446    0.6463 H         1 <0>         0.1453
     30 H8         -1.7080   -0.1315   -1.1017 H         1 <0>         0.1541
     31 H9         -2.3506   -2.3958   -0.4202 H         1 <0>         0.1135
     32 H10        -0.6274   -2.3845   -0.8658 H         1 <0>         0.0922
     33 H11        -1.4858   -4.2752   -0.7165 H         1 <0>         0.1456
     34 H12        -1.3941   -6.7161   -0.4280 H         1 <0>         0.1370
     35 H13         0.7129   -3.3406    3.8552 H         1 <0>         0.0897
     36 H14        -1.0059   -2.8821    4.0502 H         1 <0>         0.0850
     37 H15         0.2580   -4.6663    5.7454 H         1 <0>         0.0937
     38 H16        -1.4921   -4.7810    5.3611 H         1 <0>         0.0815
     39 H17        -0.8633   -6.8969    4.5402 H         1 <0>         0.0901
     40 H18         0.8185   -6.3682    4.2325 H         1 <0>         0.1006
     41 H19         0.9255   -8.0105    3.0952 H         1 <0>         0.1787
     42 H20         1.0000  -10.4767    3.3770 H         1 <0>         0.1804
     43 H21        -0.7200  -11.8603    2.2429 H         1 <0>         0.1841
     44 H22        -2.6619  -11.8925    0.8211 H         1 <0>         0.4437
     45 H23        -3.3502  -10.4967    0.1881 H         1 <0>         0.4216
     46 H24         0.3404   -0.4258    0.9781 H         1 <0>         0.4322
     47 H25        -2.4117   -8.4297    0.6987 H         1 <0>         0.4374
@<TRIPOS>BOND
     1    1    2 1
     2    1   23 1
     3    1   24 1
     4    1   25 1
     5    2    3 1
     6    2    4 1
     7    2   46 1
     8    3   26 1
     9    3   27 1
    10    3   28 1
    11    4    5 1
    12    4   29 1
    13    4   30 1
    14    5    6 1
    15    5   31 1
    16    5   32 1
    17    6    7 1
    18    7   12 ar
    19    7    8 ar
    20    8    9 ar
    21    8   33 1
    22    9   10 ar
    23    9   34 1
    24   10   11 ar
    25   10   16 1
    26   11   15 1
    27   11   12 ar
    28   12   13 1
    29   13   14 1
    30   13   35 1
    31   13   36 1
    32   14   15 1
    33   14   37 1
    34   14   38 1
    35   15   39 1
    36   15   40 1
    37   16   21 ar
    38   16   17 ar
    39   17   18 ar
    40   17   41 1
    41   18   19 ar
    42   18   42 1
    43   19   20 ar
    44   19   43 1
    45   20   21 ar
    46   20   22 1
    47   21   47 1
    48   22   44 1
    49   22   45 1
@<TRIPOS>MOLECULE
CHEMBL43678__1
   46    48     0     0     0
SMALL
USER_CHARGES

@<TRIPOS>ATOM
      1 C1         -0.0178    1.4648    0.0101 C.3       1 <0>        -0.0544
      2 N1          0.0021   -0.0041    0.0020 N.4       1 <0>        -0.3889
      3 C2          0.7126   -0.4907    1.1921 C.3       1 <0>        -0.0474
      4 C3         -1.3761   -0.5125    0.0124 C.3       1 <0>        -0.0014
      5 C4         -2.0780   -0.1101   -1.2861 C.3       1 <0>         0.0228
      6 O1         -1.4443   -0.7583   -2.3908 O.3       1 <0>        -0.3261
      7 C5         -1.9495   -0.5063   -3.6263 C.ar      1 <0>         0.1356
      8 C6         -3.0299    0.3529   -3.7679 C.ar      1 <0>        -0.2088
      9 C7         -3.5454    0.6119   -5.0198 C.ar      1 <0>        -0.0571
     10 C8         -2.9792    0.0093   -6.1413 C.ar      1 <0>        -0.0581
     11 C9         -1.8920   -0.8551   -5.9975 C.ar      1 <0>        -0.0057
     12 C10        -1.3773   -1.1064   -4.7432 C.ar      1 <0>        -0.1300
     13 C11        -0.2083   -2.0622   -4.8509 C.3       1 <0>        -0.0696
     14 C12        -0.3366   -2.7010   -6.2501 C.3       1 <0>        -0.1282
     15 C13        -1.1078   -1.6255   -7.0380 C.3       1 <0>        -0.0748
     16 C14        -3.5321    0.2859   -7.4890 C.ar      1 <0>         0.2117
     17 C15        -4.6129    1.1528   -7.6263 C.ar      1 <0>        -0.2249
     18 C16        -5.1221    1.4046   -8.8903 C.ar      1 <0>        -0.0278
     19 C17        -4.5342    0.7813   -9.9781 C.ar      1 <0>        -0.2371
     20 C18        -3.4564   -0.0743   -9.7725 C.ar      1 <0>         0.4111
     21 N2         -2.9884   -0.2912   -8.5540 N.ar      1 <0>        -0.5363
     22 N3         -2.8614   -0.7040  -10.8595 N.pl3     1 <0>        -0.8501
     23 H1          1.0047    1.8421    0.0024 H         1 <0>         0.1270
     24 H2         -0.5450    1.8259   -0.8730 H         1 <0>         0.1217
     25 H3         -0.5280    1.8163    0.9069 H         1 <0>         0.1246
     26 H4          0.2024   -0.1392    2.0889 H         1 <0>         0.1229
     27 H5          0.7273   -1.5806    1.1861 H         1 <0>         0.1246
     28 H6          1.7352   -0.1134    1.1844 H         1 <0>         0.1257
     29 H7         -1.3618   -1.5992    0.0961 H         1 <0>         0.1423
     30 H8         -1.9129   -0.0898    0.8617 H         1 <0>         0.1491
     31 H9         -3.1251   -0.4096   -1.2410 H         1 <0>         0.1093
     32 H10        -2.0144    0.9705   -1.4137 H         1 <0>         0.0872
     33 H11        -3.4672    0.8185   -2.8970 H         1 <0>         0.1328
     34 H12        -4.3865    1.2802   -5.1311 H         1 <0>         0.1389
     35 H13         0.7332   -1.5191   -4.7679 H         1 <0>         0.0774
     36 H14        -0.2734   -2.8280   -4.0780 H         1 <0>         0.0734
     37 H15         0.6462   -2.8784   -6.6868 H         1 <0>         0.0809
     38 H16        -0.9135   -3.6246   -6.2031 H         1 <0>         0.0734
     39 H17        -1.7846   -2.0853   -7.7581 H         1 <0>         0.0972
     40 H18        -0.4044   -0.9660   -7.5464 H         1 <0>         0.0851
     41 H19        -5.0496    1.6233   -6.7578 H         1 <0>         0.1319
     42 H20        -5.9600    2.0727   -9.0241 H         1 <0>         0.1372
     43 H21        -4.9087    0.9571  -10.9758 H         1 <0>         0.1333
     44 H22        -3.1980   -0.5460  -11.7554 H         1 <0>         0.4111
     45 H23        -2.1097   -1.3015  -10.7221 H         1 <0>         0.4043
     46 H24         0.4743   -0.3295   -0.8281 H         1 <0>         0.4340
@<TRIPOS>BOND
     1    1    2 1
     2    1   23 1
     3    1   24 1
     4    1   25 1
     5    2    3 1
     6    2    4 1
     7    2   46 1
     8    3   26 1
     9    3   27 1
    10    3   28 1
    11    4    5 1
    12    4   29 1
    13    4   30 1
    14    5    6 1
    15    5   31 1
    16    5   32 1
    17    6    7 1
    18    7   12 ar
    19    7    8 ar
    20    8    9 ar
    21    8   33 1
    22    9   10 ar
    23    9   34 1
    24   10   11 ar
    25   10   16 1
    26   11   15 1
    27   11   12 ar
    28   12   13 1
    29   13   14 1
    30   13   35 1
    31   13   36 1
    32   14   15 1
    33   14   37 1
    34   14   38 1
    35   15   39 1
    36   15   40 1
    37   16   21 ar
    38   16   17 ar
    39   17   18 ar
    40   17   41 1
    41   18   19 ar
    42   18   42 1
    43   19   20 ar
    44   19   43 1
    45   20   21 ar
    46   20   22 1
    47   22   44 1
    48   22   45 1
@<TRIPOS>MOLECULE
CHEMBL43240
   47    50     0     0     0
SMALL
USER_CHARGES

@<TRIPOS>ATOM
      1 C1         -0.1517    1.2518   -0.2777 C.3       1 <0>        -0.0481
      2 N1         -0.2341   -0.2087   -0.1431 N.4       1 <0>        -0.3887
      3 C2         -1.6270   -0.6029    0.1576 C.3       1 <0>        -0.0082
      4 C3         -1.4977   -1.8005    1.1315 C.3       1 <0>        -0.1745
      5 C4         -0.2734   -1.3788    1.9860 C.3       1 <0>         0.0656
      6 C5          0.6297   -0.6543    0.9656 C.3       1 <0>        -0.0085
      7 O1          0.3886   -2.5266    2.5211 O.3       1 <0>        -0.2830
      8 C6         -0.0988   -3.0336    3.6819 C.ar      1 <0>         0.1935
      9 C7         -1.2496   -2.5132    4.2338 C.ar      1 <0>        -0.2334
     10 C8         -1.7636   -3.0178    5.4204 C.ar      1 <0>        -0.0275
     11 C9         -1.1315   -4.0585    6.0801 C.ar      1 <0>        -0.1332
     12 C10         0.0521   -4.6134    5.5367 C.ar      1 <0>         0.0224
     13 C11         0.5679   -4.0983    4.3234 C.ar      1 <0>        -0.0715
     14 C12         1.7394   -4.6530    3.7828 C.ar      1 <0>        -0.0763
     15 C13         2.3588   -5.6801    4.4277 C.ar      1 <0>        -0.1120
     16 C14         1.8470   -6.1904    5.6184 C.ar      1 <0>        -0.0619
     17 C15         0.7195   -5.6680    6.1766 C.ar      1 <0>        -0.1521
     18 C16        -1.6894   -4.5867    7.3449 C.ar      1 <0>         0.2374
     19 C17        -1.6763   -5.9594    7.5853 C.ar      1 <0>        -0.1679
     20 C18        -2.2007   -6.4430    8.7728 C.ar      1 <0>         0.0415
     21 C19        -2.7224   -5.5398    9.6842 C.ar      1 <0>        -0.1962
     22 C20        -2.7053   -4.1812    9.3837 C.ar      1 <0>         0.4573
     23 N2         -2.1932   -3.7474    8.2434 N.ar      1 <0>        -0.5063
     24 N3         -3.2275   -3.2695   10.2936 N.pl3     1 <0>        -0.8197
     25 H1          0.8791    1.5401   -0.4840 H         1 <0>         0.1288
     26 H2         -0.7912    1.5777   -1.0980 H         1 <0>         0.1302
     27 H3         -0.4818    1.7213    0.6490 H         1 <0>         0.1233
     28 H4         -2.1592    0.2194    0.6357 H         1 <0>         0.1392
     29 H5         -2.1400   -0.9089   -0.7542 H         1 <0>         0.1461
     30 H6         -2.3900   -1.8990    1.7498 H         1 <0>         0.1238
     31 H7         -1.2961   -2.7245    0.5896 H         1 <0>         0.1160
     32 H8         -0.5754   -0.7000    2.7835 H         1 <0>         0.1167
     33 H9          1.3899   -1.3397    0.5910 H         1 <0>         0.1493
     34 H10         1.1035    0.2073    1.4360 H         1 <0>         0.1491
     35 H11        -1.7585   -1.7009    3.7361 H         1 <0>         0.1414
     36 H12        -2.6666   -2.5937    5.8340 H         1 <0>         0.1340
     37 H13         2.1468   -4.2672    2.8601 H         1 <0>         0.1405
     38 H14         3.2594   -6.1052    4.0098 H         1 <0>         0.1406
     39 H15         2.3563   -7.0056    6.1107 H         1 <0>         0.1414
     40 H16         0.3342   -6.0725    7.1009 H         1 <0>         0.1433
     41 H17        -1.2626   -6.6382    6.8543 H         1 <0>         0.1850
     42 H18        -2.2030   -7.5023    8.9835 H         1 <0>         0.1809
     43 H19        -3.1385   -5.8865   10.6186 H         1 <0>         0.1839
     44 H20        -3.6012   -3.5814   11.1326 H         1 <0>         0.4435
     45 H21        -3.2183   -2.3212   10.0895 H         1 <0>         0.4211
     46 H22         0.0628   -0.6469   -1.0021 H         1 <0>         0.4363
     47 H23        -2.1887   -2.7953    8.0577 H         1 <0>         0.4369
@<TRIPOS>BOND
     1    1    2 1
     2    1   25 1
     3    1   26 1
     4    1   27 1
     5    2    6 1
     6    2    3 1
     7    2   46 1
     8    3    4 1
     9    3   28 1
    10    3   29 1
    11    4    5 1
    12    4   30 1
    13    4   31 1
    14    5    6 1
    15    5    7 1
    16    5   32 1
    17    6   33 1
    18    6   34 1
    19    7    8 1
    20    8   13 ar
    21    8    9 ar
    22    9   10 ar
    23    9   35 1
    24   10   11 ar
    25   10   36 1
    26   11   12 ar
    27   11   18 1
    28   12   17 ar
    29   12   13 ar
    30   13   14 ar
    31   14   15 ar
    32   14   37 1
    33   15   16 ar
    34   15   38 1
    35   16   17 ar
    36   16   39 1
    37   17   40 1
    38   18   23 ar
    39   18   19 ar
    40   19   20 ar
    41   19   41 1
    42   20   21 ar
    43   20   42 1
    44   21   22 ar
    45   21   43 1
    46   22   23 ar
    47   22   24 1
    48   23   47 1
    49   24   44 1
    50   24   45 1
@<TRIPOS>MOLECULE
CHEMBL43240__1
   46    49     0     0     0
SMALL
USER_CHARGES

@<TRIPOS>ATOM
      1 C1         -0.2091    1.2185   -0.3102 C.3       1 <0>        -0.0467
      2 N1         -0.2492   -0.2432   -0.1693 N.4       1 <0>        -0.3881
      3 C2         -1.6353   -0.6789    0.1038 C.3       1 <0>        -0.0082
      4 C3         -1.4901   -1.8671    1.0869 C.3       1 <0>        -0.1738
      5 C4         -0.2979   -1.4036    1.9648 C.3       1 <0>         0.0686
      6 C5          0.6040   -0.6564    0.9599 C.3       1 <0>        -0.0091
      7 O1          0.3877   -2.5276    2.5203 O.3       1 <0>        -0.2901
      8 C6         -0.0993   -3.0342    3.6815 C.ar      1 <0>         0.1360
      9 C7         -1.2659   -2.5334    4.2182 C.ar      1 <0>        -0.2095
     10 C8         -1.7797   -3.0378    5.4049 C.ar      1 <0>        -0.0650
     11 C9         -1.1315   -4.0585    6.0801 C.ar      1 <0>        -0.0423
     12 C10         0.0685   -4.5930    5.5525 C.ar      1 <0>         0.0037
     13 C11         0.5842   -4.0783    4.3389 C.ar      1 <0>        -0.0617
     14 C12         1.7721   -4.6128    3.8141 C.ar      1 <0>        -0.1001
     15 C13         2.4074   -5.6202    4.4741 C.ar      1 <0>        -0.1117
     16 C14         1.8959   -6.1303    5.6651 C.ar      1 <0>        -0.1041
     17 C15         0.7525   -5.6270    6.2083 C.ar      1 <0>        -0.0939
     18 C16        -1.6894   -4.5867    7.3449 C.ar      1 <0>         0.2092
     19 C17        -3.0372   -4.9349    7.4129 C.ar      1 <0>        -0.2166
     20 C18        -3.5489   -5.4288    8.6017 C.ar      1 <0>        -0.0289
     21 C19        -2.6978   -5.5596    9.6868 C.ar      1 <0>        -0.2343
     22 C20        -1.3619   -5.1939    9.5533 C.ar      1 <0>         0.4086
     23 N2         -0.8995   -4.7297    8.4038 N.ar      1 <0>        -0.5346
     24 N3         -0.5026   -5.3222   10.6382 N.pl3     1 <0>        -0.8498
     25 H1          0.8164    1.5376   -0.4961 H         1 <0>         0.1261
     26 H2         -0.8407    1.5205   -1.1457 H         1 <0>         0.1270
     27 H3         -0.5733    1.6820    0.6066 H         1 <0>         0.1232
     28 H4         -2.2029    0.1288    0.5660 H         1 <0>         0.1375
     29 H5         -2.1190   -1.0051   -0.8169 H         1 <0>         0.1422
     30 H6         -2.3919   -1.9903    1.6866 H         1 <0>         0.1244
     31 H7         -1.2484   -2.7871    0.5545 H         1 <0>         0.1130
     32 H8         -0.6378   -0.7306    2.7520 H         1 <0>         0.1134
     33 H9          1.3929   -1.3197    0.6053 H         1 <0>         0.1468
     34 H10         1.0408    0.2218    1.4354 H         1 <0>         0.1459
     35 H11        -1.7875   -1.7369    3.7083 H         1 <0>         0.1290
     36 H12        -2.6952   -2.6293    5.8065 H         1 <0>         0.1340
     37 H13         2.1795   -4.2269    2.8913 H         1 <0>         0.1296
     38 H14         3.3206   -6.0298    4.0682 H         1 <0>         0.1283
     39 H15         2.4181   -6.9298    6.1696 H         1 <0>         0.1284
     40 H16         0.3676   -6.0310    7.1329 H         1 <0>         0.1390
     41 H17        -3.6753   -4.8208    6.5491 H         1 <0>         0.1326
     42 H18        -4.5898   -5.7057    8.6810 H         1 <0>         0.1382
     43 H19        -3.0675   -5.9413   10.6270 H         1 <0>         0.1341
     44 H20        -0.8351   -5.6651   11.4825 H         1 <0>         0.4112
     45 H21         0.4297   -5.0689   10.5511 H         1 <0>         0.4052
     46 H22         0.0794   -0.6761   -1.0194 H         1 <0>         0.4331
@<TRIPOS>BOND
     1    1    2 1
     2    1   25 1
     3    1   26 1
     4    1   27 1
     5    2    6 1
     6    2    3 1
     7    2   46 1
     8    3    4 1
     9    3   28 1
    10    3   29 1
    11    4    5 1
    12    4   30 1
    13    4   31 1
    14    5    6 1
    15    5    7 1
    16    5   32 1
    17    6   33 1
    18    6   34 1
    19    7    8 1
    20    8   13 ar
    21    8    9 ar
    22    9   10 ar
    23    9   35 1
    24   10   11 ar
    25   10   36 1
    26   11   12 ar
    27   11   18 1
    28   12   17 ar
    29   12   13 ar
    30   13   14 ar
    31   14   15 ar
    32   14   37 1
    33   15   16 ar
    34   15   38 1
    35   16   17 ar
    36   16   39 1
    37   17   40 1
    38   18   23 ar
    39   18   19 ar
    40   19   20 ar
    41   19   41 1
    42   20   21 ar
    43   20   42 1
    44   21   22 ar
    45   21   43 1
    46   22   23 ar
    47   22   24 1
    48   24   44 1
    49   24   45 1
@<TRIPOS>MOLECULE
CHEMBL43240__2
   47    50     0     0     0
SMALL
USER_CHARGES

@<TRIPOS>ATOM
      1 C1          0.2121    1.4548    0.0001 C.3       1 <0>        -0.0430
      2 N1          0.3458   -0.0081    0.0138 N.4       1 <0>        -0.3946
      3 C2         -0.9875   -0.6528   -0.1037 C.3       1 <0>        -0.0021
      4 C3         -0.7865   -2.0702    0.4740 C.3       1 <0>        -0.1779
      5 C4          0.4291   -1.9504    1.4161 C.3       1 <0>         0.0616
      6 C5          0.8603   -0.4706    1.3284 C.3       1 <0>        -0.0006
      7 O1          0.0536   -2.2794    2.7551 O.3       1 <0>        -0.2845
      8 C6          0.0588   -3.5944    3.0910 C.ar      1 <0>         0.1915
      9 C7          0.3053   -4.5518    2.1305 C.ar      1 <0>        -0.2317
     10 C8          0.3144   -5.9016    2.4542 C.ar      1 <0>        -0.0276
     11 C9          0.0756   -6.3203    3.7524 C.ar      1 <0>        -0.1330
     12 C10        -0.1801   -5.3595    4.7602 C.ar      1 <0>         0.0221
     13 C11        -0.1823   -3.9843    4.4250 C.ar      1 <0>        -0.0712
     14 C12        -0.4312   -3.0319    5.4266 C.ar      1 <0>        -0.0765
     15 C13        -0.6607   -3.4420    6.7046 C.ar      1 <0>        -0.1120
     16 C14        -0.6523   -4.7952    7.0348 C.ar      1 <0>        -0.0622
     17 C15        -0.4261   -5.7459    6.0858 C.ar      1 <0>        -0.1519
     18 C16         0.0873   -7.7625    4.0840 C.ar      1 <0>         0.2372
     19 C17         0.6600   -8.1914    5.2800 C.ar      1 <0>        -0.1679
     20 C18         0.6651   -9.5437    5.5806 C.ar      1 <0>         0.0416
     21 C19         0.0974  -10.4264    4.6766 C.ar      1 <0>        -0.1962
     22 C20        -0.4583   -9.9337    3.4999 C.ar      1 <0>         0.4574
     23 N2         -0.4534   -8.6361    3.2413 N.ar      1 <0>        -0.5063
     24 N3         -1.0292  -10.8140    2.5882 N.pl3     1 <0>        -0.8197
     25 H1          1.1859    1.9103    0.1796 H         1 <0>         0.1284
     26 H2         -0.1660    1.7761   -0.9704 H         1 <0>         0.1299
     27 H3         -0.4829    1.7634    0.7811 H         1 <0>         0.1251
     28 H4         -1.7272   -0.1055    0.4806 H         1 <0>         0.1398
     29 H5         -1.2924   -0.7079   -1.1488 H         1 <0>         0.1429
     30 H6         -1.6695   -2.3800    1.0329 H         1 <0>         0.1244
     31 H7         -0.5763   -2.7791   -0.3269 H         1 <0>         0.1127
     32 H8          1.2359   -2.6005    1.0777 H         1 <0>         0.1170
     33 H9          1.9467   -0.3886    1.3617 H         1 <0>         0.1512
     34 H10         0.4097    0.1052    2.1369 H         1 <0>         0.1504
     35 H11         0.4937   -4.2475    1.1115 H         1 <0>         0.1414
     36 H12         0.5096   -6.6338    1.6846 H         1 <0>         0.1340
     37 H13        -0.4403   -1.9795    5.1845 H         1 <0>         0.1403
     38 H14        -0.8516   -2.7077    7.4732 H         1 <0>         0.1405
     39 H15        -0.8367   -5.0953    8.0558 H         1 <0>         0.1413
     40 H16        -0.4236   -6.7918    6.3553 H         1 <0>         0.1433
     41 H17         1.0951   -7.4780    5.9642 H         1 <0>         0.1850
     42 H18         1.1028   -9.9022    6.5005 H         1 <0>         0.1809
     43 H19         0.0865  -11.4865    4.8829 H         1 <0>         0.1839
     44 H20        -1.0387  -11.7660    2.7740 H         1 <0>         0.4434
     45 H21        -1.4180  -10.4763    1.7662 H         1 <0>         0.4210
     46 H22         0.9543   -0.3138   -0.7307 H         1 <0>         0.4337
     47 H23        -0.8503   -8.3157    2.4163 H         1 <0>         0.4369
@<TRIPOS>BOND
     1    1    2 1
     2    1   25 1
     3    1   26 1
     4    1   27 1
     5    2    6 1
     6    2    3 1
     7    2   46 1
     8    3    4 1
     9    3   28 1
    10    3   29 1
    11    4    5 1
    12    4   30 1
    13    4   31 1
    14    5    6 1
    15    5    7 1
    16    5   32 1
    17    6   33 1
    18    6   34 1
    19    7    8 1
    20    8   13 ar
    21    8    9 ar
    22    9   10 ar
    23    9   35 1
    24   10   11 ar
    25   10   36 1
    26   11   12 ar
    27   11   18 1
    28   12   17 ar
    29   12   13 ar
    30   13   14 ar
    31   14   15 ar
    32   14   37 1
    33   15   16 ar
    34   15   38 1
    35   16   17 ar
    36   16   39 1
    37   17   40 1
    38   18   23 ar
    39   18   19 ar
    40   19   20 ar
    41   19   41 1
    42   20   21 ar
    43   20   42 1
    44   21   22 ar
    45   21   43 1
    46   22   23 ar
    47   22   24 1
    48   23   47 1
    49   24   44 1
    50   24   45 1
@<TRIPOS>MOLECULE
CHEMBL43240__3
   46    49     0     0     0
SMALL
USER_CHARGES

@<TRIPOS>ATOM
      1 C1          0.3650    1.4662    0.0289 C.3       1 <0>        -0.0413
      2 N1          0.5033    0.0039    0.0451 N.4       1 <0>        -0.3949
      3 C2         -0.8181   -0.6453   -0.1538 C.3       1 <0>        -0.0011
      4 C3         -0.6462   -2.0642    0.4297 C.3       1 <0>        -0.1779
      5 C4          0.5108   -1.9436    1.4428 C.3       1 <0>         0.0648
      6 C5          0.9406   -0.4619    1.3863 C.3       1 <0>        -0.0004
      7 O1          0.0577   -2.2792    2.7558 O.3       1 <0>        -0.2917
      8 C6          0.0609   -3.5943    3.0914 C.ar      1 <0>         0.1343
      9 C7          0.3782   -4.5473    2.1475 C.ar      1 <0>        -0.2080
     10 C8          0.3865   -5.8972    2.4710 C.ar      1 <0>        -0.0652
     11 C9          0.0756   -6.3203    3.7524 C.ar      1 <0>        -0.0424
     12 C10        -0.2538   -5.3640    4.7430 C.ar      1 <0>         0.0033
     13 C11        -0.2549   -3.9887    4.4083 C.ar      1 <0>        -0.0616
     14 C12        -0.5771   -3.0408    5.3931 C.ar      1 <0>        -0.1006
     15 C13        -0.8776   -3.4552    6.6550 C.ar      1 <0>        -0.1115
     16 C14        -0.8703   -4.8084    6.9850 C.ar      1 <0>        -0.1049
     17 C15        -0.5741   -5.7551    6.0512 C.ar      1 <0>        -0.0936
     18 C16         0.0873   -7.7625    4.0840 C.ar      1 <0>         0.2091
     19 C17         1.1621   -8.5544    3.6839 C.ar      1 <0>        -0.2167
     20 C18         1.1630   -9.9031    3.9999 C.ar      1 <0>        -0.0287
     21 C19         0.0893  -10.4196    4.7065 C.ar      1 <0>        -0.2342
     22 C20        -0.9529   -9.5752    5.0765 C.ar      1 <0>         0.4086
     23 N2         -0.9246   -8.2895    4.7652 N.ar      1 <0>        -0.5348
     24 N3         -2.0335  -10.0871    5.7852 N.pl3     1 <0>        -0.8499
     25 H1          1.3247    1.9246    0.2676 H         1 <0>         0.1256
     26 H2          0.0440    1.7899   -0.9612 H         1 <0>         0.1266
     27 H3         -0.3763    1.7693    0.7683 H         1 <0>         0.1234
     28 H4         -1.5934   -0.1030    0.3876 H         1 <0>         0.1371
     29 H5         -1.0602   -0.6974   -1.2153 H         1 <0>         0.1394
     30 H6         -1.5597   -2.3794    0.9340 H         1 <0>         0.1248
     31 H7         -0.3861   -2.7692   -0.3599 H         1 <0>         0.1109
     32 H8          1.3388   -2.5894    1.1505 H         1 <0>         0.1132
     33 H9          2.0228   -0.3760    1.4843 H         1 <0>         0.1476
     34 H10         0.4406    0.1091    2.1686 H         1 <0>         0.1476
     35 H11         0.6236   -4.2395    1.1418 H         1 <0>         0.1290
     36 H12         0.6380   -6.6258    1.7146 H         1 <0>         0.1341
     37 H13        -0.5861   -1.9883    5.1510 H         1 <0>         0.1294
     38 H14        -1.1247   -2.7242    7.4107 H         1 <0>         0.1280
     39 H15        -1.1118   -5.1120    7.9929 H         1 <0>         0.1283
     40 H16        -0.5732   -6.8010    6.3204 H         1 <0>         0.1406
     41 H17         1.9845   -8.1216    3.1336 H         1 <0>         0.1328
     42 H18         1.9835  -10.5387    3.7014 H         1 <0>         0.1383
     43 H19         0.0613  -11.4673    4.9672 H         1 <0>         0.1341
     44 H20        -2.0582  -11.0281    6.0191 H         1 <0>         0.4112
     45 H21        -2.7630   -9.5032    6.0458 H         1 <0>         0.4051
     46 H22         1.1562   -0.2967   -0.6631 H         1 <0>         0.4322
@<TRIPOS>BOND
     1    1    2 1
     2    1   25 1
     3    1   26 1
     4    1   27 1
     5    2    6 1
     6    2    3 1
     7    2   46 1
     8    3    4 1
     9    3   28 1
    10    3   29 1
    11    4    5 1
    12    4   30 1
    13    4   31 1
    14    5    6 1
    15    5    7 1
    16    5   32 1
    17    6   33 1
    18    6   34 1
    19    7    8 1
    20    8   13 ar
    21    8    9 ar
    22    9   10 ar
    23    9   35 1
    24   10   11 ar
    25   10   36 1
    26   11   12 ar
    27   11   18 1
    28   12   17 ar
    29   12   13 ar
    30   13   14 ar
    31   14   15 ar
    32   14   37 1
    33   15   16 ar
    34   15   38 1
    35   16   17 ar
    36   16   39 1
    37   17   40 1
    38   18   23 ar
    39   18   19 ar
    40   19   20 ar
    41   19   41 1
    42   20   21 ar
    43   20   42 1
    44   21   22 ar
    45   21   43 1
    46   22   23 ar
    47   22   24 1
    48   24   44 1
    49   24   45 1
@<TRIPOS>MOLECULE
CHEMBL42863
   50    53     0     0     0
SMALL
USER_CHARGES

@<TRIPOS>ATOM
      1 C1          3.0923   -0.3625    0.9050 C.3       1 <0>        -0.0631
      2 N1          1.8737   -1.0822    0.5110 N.4       1 <0>        -0.3840
      3 C2          1.6066   -0.8587   -0.9258 C.3       1 <0>        -0.0120
      4 C3          0.0631   -0.7838   -1.0343 C.3       1 <0>        -0.1447
      5 C4         -0.3071   -0.0374    0.2744 C.3       1 <0>        -0.1321
      6 C5          0.7261   -0.5762    1.2862 C.3       1 <0>         0.0219
      7 C6          1.1817    0.5510    2.2150 C.3       1 <0>         0.0376
      8 O1          0.0503    1.0875    2.9035 O.3       1 <0>        -0.2888
      9 C7          0.2829    2.1033    3.7731 C.ar      1 <0>         0.1962
     10 C8          1.5646    2.5763    3.9560 C.ar      1 <0>        -0.2347
     11 C9          1.8228    3.6139    4.8411 C.ar      1 <0>        -0.0266
     12 C10         0.7972    4.2005    5.5634 C.ar      1 <0>        -0.1351
     13 C11        -0.5295    3.7359    5.3959 C.ar      1 <0>         0.0228
     14 C12        -0.7872    2.6814    4.4876 C.ar      1 <0>        -0.0719
     15 C13        -2.1044    2.2247    4.3187 C.ar      1 <0>        -0.0752
     16 C14        -3.1146    2.8043    5.0242 C.ar      1 <0>        -0.1127
     17 C15        -2.8609    3.8461    5.9133 C.ar      1 <0>        -0.0618
     18 C16        -1.5936    4.3055    6.1102 C.ar      1 <0>        -0.1525
     19 C17         1.0862    5.3054    6.5045 C.ar      1 <0>         0.2381
     20 C18         0.2096    6.3854    6.5916 C.ar      1 <0>        -0.1683
     21 C19         0.4896    7.4141    7.4762 C.ar      1 <0>         0.0416
     22 C20         1.6375    7.3321    8.2471 C.ar      1 <0>        -0.1965
     23 C21         2.4716    6.2265    8.1125 C.ar      1 <0>         0.4573
     24 N2          2.1763    5.2562    7.2628 N.ar      1 <0>        -0.5064
     25 N3          3.6252    6.1381    8.8827 N.pl3     1 <0>        -0.8199
     26 H1          3.2562   -0.4847    1.9757 H         1 <0>         0.1247
     27 H2          3.9450   -0.7654    0.3585 H         1 <0>         0.1336
     28 H3          2.9797    0.6966    0.6732 H         1 <0>         0.1243
     29 H4          2.0560    0.0785   -1.2541 H         1 <0>         0.1346
     30 H5          1.9885   -1.6912   -1.5168 H         1 <0>         0.1428
     31 H6         -0.2394   -0.2099   -1.9101 H         1 <0>         0.1222
     32 H7         -0.3759   -1.7814   -1.0523 H         1 <0>         0.1038
     33 H8         -0.1972    1.0397    0.1480 H         1 <0>         0.1003
     34 H9         -1.3205   -0.2883    0.5878 H         1 <0>         0.1198
     35 H10         0.2868   -1.3855    1.8693 H         1 <0>         0.1537
     36 H11         1.8954    0.1586    2.9395 H         1 <0>         0.0929
     37 H12         1.6557    1.3370    1.6272 H         1 <0>         0.0929
     38 H13         2.3796    2.1330    3.4031 H         1 <0>         0.1388
     39 H14         2.8353    3.9676    4.9681 H         1 <0>         0.1336
     40 H15        -2.3152    1.4179    3.6323 H         1 <0>         0.1408
     41 H16        -4.1268    2.4516    4.8923 H         1 <0>         0.1405
     42 H17        -3.6791    4.2898    6.4611 H         1 <0>         0.1412
     43 H18        -1.4109    5.1132    6.8035 H         1 <0>         0.1432
     44 H19        -0.6773    6.4202    5.9764 H         1 <0>         0.1850
     45 H20        -0.1732    8.2624    7.5627 H         1 <0>         0.1808
     46 H21         1.8828    8.1186    8.9454 H         1 <0>         0.1838
     47 H22         3.8451    6.8448    9.5097 H         1 <0>         0.4434
     48 H23         4.2105    5.3698    8.7931 H         1 <0>         0.4210
     49 H24         1.9909   -2.0694    0.6831 H         1 <0>         0.4363
     50 H25         2.7709    4.4934    7.1891 H         1 <0>         0.4368
@<TRIPOS>BOND
     1    1    2 1
     2    1   26 1
     3    1   27 1
     4    1   28 1
     5    2    6 1
     6    2    3 1
     7    2   49 1
     8    3    4 1
     9    3   29 1
    10    3   30 1
    11    4    5 1
    12    4   31 1
    13    4   32 1
    14    5    6 1
    15    5   33 1
    16    5   34 1
    17    6    7 1
    18    6   35 1
    19    7    8 1
    20    7   36 1
    21    7   37 1
    22    8    9 1
    23    9   14 ar
    24    9   10 ar
    25   10   11 ar
    26   10   38 1
    27   11   12 ar
    28   11   39 1
    29   12   13 ar
    30   12   19 1
    31   13   18 ar
    32   13   14 ar
    33   14   15 ar
    34   15   16 ar
    35   15   40 1
    36   16   17 ar
    37   16   41 1
    38   17   18 ar
    39   17   42 1
    40   18   43 1
    41   19   24 ar
    42   19   20 ar
    43   20   21 ar
    44   20   44 1
    45   21   22 ar
    46   21   45 1
    47   22   23 ar
    48   22   46 1
    49   23   24 ar
    50   23   25 1
    51   24   50 1
    52   25   47 1
    53   25   48 1
@<TRIPOS>MOLECULE
CHEMBL42863__1
   49    52     0     0     0
SMALL
USER_CHARGES

@<TRIPOS>ATOM
      1 C1          3.0709   -0.2830    0.8183 C.3       1 <0>        -0.0627
      2 N1          1.8586   -1.0266    0.4505 N.4       1 <0>        -0.3835
      3 C2          1.5494   -0.7993   -0.9773 C.3       1 <0>        -0.0111
      4 C3          0.0024   -0.7578   -1.0453 C.3       1 <0>        -0.1445
      5 C4         -0.3500   -0.0286    0.2780 C.3       1 <0>        -0.1306
      6 C5          0.7206   -0.5514    1.2587 C.3       1 <0>         0.0222
      7 C6          1.1755    0.5791    2.1839 C.3       1 <0>         0.0407
      8 O1          0.0500    1.0889    2.9019 O.3       1 <0>        -0.2969
      9 C7          0.2828    2.1040    3.7723 C.ar      1 <0>         0.1394
     10 C8          1.5588    2.6014    3.9283 C.ar      1 <0>        -0.2112
     11 C9          1.8171    3.6388    4.8137 C.ar      1 <0>        -0.0641
     12 C10         0.7972    4.2005    5.5634 C.ar      1 <0>        -0.0444
     13 C11        -0.5236    3.7104    5.4239 C.ar      1 <0>         0.0043
     14 C12        -0.7815    2.6564    4.5152 C.ar      1 <0>        -0.0623
     15 C13        -2.0930    2.1744    4.3741 C.ar      1 <0>        -0.0989
     16 C14        -3.0977    2.7296    5.1067 C.ar      1 <0>        -0.1124
     17 C15        -2.8439    3.7711    5.9962 C.ar      1 <0>        -0.1040
     18 C16        -1.5817    4.2545    6.1664 C.ar      1 <0>        -0.0944
     19 C17         1.0862    5.3054    6.5045 C.ar      1 <0>         0.2099
     20 C18         1.8429    6.3955    6.0782 C.ar      1 <0>        -0.2170
     21 C19         2.1071    7.4244    6.9672 C.ar      1 <0>        -0.0289
     22 C20         1.6070    7.3328    8.2557 C.ar      1 <0>        -0.2345
     23 C21         0.8583    6.2174    8.6186 C.ar      1 <0>         0.4086
     24 N2          0.6174    5.2519    7.7467 N.ar      1 <0>        -0.5347
     25 N3          0.3538    6.1188    9.9100 N.pl3     1 <0>        -0.8498
     26 H1          3.2564   -0.3960    1.8864 H         1 <0>         0.1268
     27 H2          3.9206   -0.6738    0.2585 H         1 <0>         0.1301
     28 H3          2.9351    0.7726    0.5828 H         1 <0>         0.1257
     29 H4          1.9695    0.1498   -1.3101 H         1 <0>         0.1337
     30 H5          1.9340   -1.6191   -1.5840 H         1 <0>         0.1393
     31 H6         -0.3352   -0.1846   -1.9088 H         1 <0>         0.1195
     32 H7         -0.4150   -1.7646   -1.0594 H         1 <0>         0.1010
     33 H8         -0.2670    1.0515    0.1568 H         1 <0>         0.1014
     34 H9         -1.3492   -0.3040    0.6155 H         1 <0>         0.1184
     35 H10         0.3144   -1.3742    1.8471 H         1 <0>         0.1511
     36 H11         1.9135    0.1969    2.8890 H         1 <0>         0.0874
     37 H12         1.6198    1.3779    1.5902 H         1 <0>         0.0869
     38 H13         2.3692    2.1778    3.3537 H         1 <0>         0.1263
     39 H14         2.8250    4.0119    4.9193 H         1 <0>         0.1337
     40 H15        -2.3038    1.3677    3.6878 H         1 <0>         0.1299
     41 H16        -4.1055    2.3575    4.9962 H         1 <0>         0.1282
     42 H17        -3.6578    4.1950    6.5657 H         1 <0>         0.1282
     43 H18        -1.3989    5.0616    6.8604 H         1 <0>         0.1391
     44 H19         2.2191    6.4373    5.0667 H         1 <0>         0.1325
     45 H20         2.6912    8.2801    6.6622 H         1 <0>         0.1381
     46 H21         1.7965    8.1189    8.9715 H         1 <0>         0.1340
     47 H22         0.5244    6.8252   10.5525 H         1 <0>         0.4111
     48 H23        -0.1688    5.3437   10.1687 H         1 <0>         0.4052
     49 H24         2.0018   -2.0122    0.6122 H         1 <0>         0.4333
@<TRIPOS>BOND
     1    1    2 1
     2    1   26 1
     3    1   27 1
     4    1   28 1
     5    2    6 1
     6    2    3 1
     7    2   49 1
     8    3    4 1
     9    3   29 1
    10    3   30 1
    11    4    5 1
    12    4   31 1
    13    4   32 1
    14    5    6 1
    15    5   33 1
    16    5   34 1
    17    6    7 1
    18    6   35 1
    19    7    8 1
    20    7   36 1
    21    7   37 1
    22    8    9 1
    23    9   14 ar
    24    9   10 ar
    25   10   11 ar
    26   10   38 1
    27   11   12 ar
    28   11   39 1
    29   12   13 ar
    30   12   19 1
    31   13   18 ar
    32   13   14 ar
    33   14   15 ar
    34   15   16 ar
    35   15   40 1
    36   16   17 ar
    37   16   41 1
    38   17   18 ar
    39   17   42 1
    40   18   43 1
    41   19   24 ar
    42   19   20 ar
    43   20   21 ar
    44   20   44 1
    45   21   22 ar
    46   21   45 1
    47   22   23 ar
    48   22   46 1
    49   23   24 ar
    50   23   25 1
    51   25   47 1
    52   25   48 1
@<TRIPOS>MOLECULE
CHEMBL42863__2
   50    53     0     0     0
SMALL
USER_CHARGES

@<TRIPOS>ATOM
      1 C1         -0.0178    1.4648    0.0101 C.3       1 <0>        -0.0493
      2 N1          0.0021   -0.0041    0.0020 N.4       1 <0>        -0.3925
      3 C2         -1.3791   -0.5192    0.0335 C.3       1 <0>        -0.0129
      4 C3         -1.5126   -1.3925    1.2988 C.3       1 <0>        -0.1412
      5 C4         -0.0439   -1.7839    1.6098 C.3       1 <0>        -0.1384
      6 C5          0.7163   -0.4986    1.1983 C.3       1 <0>         0.0298
      7 C6          2.1701   -0.8272    0.8528 C.3       1 <0>         0.0325
      8 O1          2.2055   -1.9153   -0.0728 O.3       1 <0>        -0.3116
      9 C7          3.4289   -2.3344   -0.4847 C.ar      1 <0>         0.1902
     10 C8          4.5666   -1.7198   -0.0074 C.ar      1 <0>        -0.2269
     11 C9          5.8266   -2.1336   -0.4169 C.ar      1 <0>        -0.0271
     12 C10         5.9720   -3.1761   -1.3168 C.ar      1 <0>        -0.1320
     13 C11         4.8214   -3.8267   -1.8238 C.ar      1 <0>         0.0212
     14 C12         3.5395   -3.4038   -1.3978 C.ar      1 <0>        -0.0706
     15 C13         2.3990   -4.0533   -1.8977 C.ar      1 <0>        -0.0801
     16 C14         2.5408   -5.0821   -2.7784 C.ar      1 <0>        -0.1109
     17 C15         3.8029   -5.5016   -3.1922 C.ar      1 <0>        -0.0645
     18 C16         4.9295   -4.8860   -2.7365 C.ar      1 <0>        -0.1490
     19 C17         7.3211   -3.6069   -1.7461 C.ar      1 <0>         0.2363
     20 C18         7.5954   -4.9644   -1.9021 C.ar      1 <0>        -0.1678
     21 C19         8.8615   -5.3566   -2.3047 C.ar      1 <0>         0.0415
     22 C20         9.8153   -4.3799   -2.5393 C.ar      1 <0>        -0.1957
     23 C21         9.4775   -3.0413   -2.3651 C.ar      1 <0>         0.4578
     24 N2          8.2584   -2.6957   -1.9845 N.ar      1 <0>        -0.5063
     25 N3         10.4299   -2.0562   -2.5983 N.pl3     1 <0>        -0.8193
     26 H1          1.0047    1.8421    0.0024 H         1 <0>         0.1201
     27 H2         -0.5450    1.8259   -0.8730 H         1 <0>         0.1280
     28 H3         -0.5280    1.8163    0.9069 H         1 <0>         0.1269
     29 H4         -2.0836    0.3112    0.0801 H         1 <0>         0.1364
     30 H5         -1.5706   -1.1215   -0.8546 H         1 <0>         0.1334
     31 H6         -1.9405   -0.8179    2.1203 H         1 <0>         0.1023
     32 H7         -2.1125   -2.2791    1.0937 H         1 <0>         0.1169
     33 H8          0.0881   -1.9927    2.6715 H         1 <0>         0.1204
     34 H9          0.2701   -2.6341    1.0044 H         1 <0>         0.1080
     35 H10         0.6733    0.2404    1.9984 H         1 <0>         0.1637
     36 H11         2.6435    0.0465    0.4047 H         1 <0>         0.0938
     37 H12         2.7055   -1.1049    1.7607 H         1 <0>         0.1178
     38 H13         4.4763   -0.9043    0.6950 H         1 <0>         0.1438
     39 H14         6.7038   -1.6366   -0.0296 H         1 <0>         0.1349
     40 H15         1.4144   -3.7385   -1.5849 H         1 <0>         0.1367
     41 H16         1.6622   -5.5802   -3.1611 H         1 <0>         0.1396
     42 H17         3.8892   -6.3203   -3.8913 H         1 <0>         0.1413
     43 H18         5.9019   -5.2207   -3.0665 H         1 <0>         0.1435
     44 H19         6.8300   -5.7020   -1.7110 H         1 <0>         0.1848
     45 H20         9.1001   -6.4021   -2.4328 H         1 <0>         0.1810
     46 H21        10.8113   -4.6546   -2.8538 H         1 <0>         0.1842
     47 H22        11.3243   -2.3035   -2.8808 H         1 <0>         0.4436
     48 H23        10.2002   -1.1215   -2.4786 H         1 <0>         0.4212
     49 H24         0.4664   -0.3335   -0.8310 H         1 <0>         0.4273
     50 H25         8.0450   -1.7560   -1.8736 H         1 <0>         0.4370
@<TRIPOS>BOND
     1    1    2 1
     2    1   26 1
     3    1   27 1
     4    1   28 1
     5    2    6 1
     6    2    3 1
     7    2   49 1
     8    3    4 1
     9    3   29 1
    10    3   30 1
    11    4    5 1
    12    4   31 1
    13    4   32 1
    14    5    6 1
    15    5   33 1
    16    5   34 1
    17    6    7 1
    18    6   35 1
    19    7    8 1
    20    7   36 1
    21    7   37 1
    22    8    9 1
    23    9   14 ar
    24    9   10 ar
    25   10   11 ar
    26   10   38 1
    27   11   12 ar
    28   11   39 1
    29   12   13 ar
    30   12   19 1
    31   13   18 ar
    32   13   14 ar
    33   14   15 ar
    34   15   16 ar
    35   15   40 1
    36   16   17 ar
    37   16   41 1
    38   17   18 ar
    39   17   42 1
    40   18   43 1
    41   19   24 ar
    42   19   20 ar
    43   20   21 ar
    44   20   44 1
    45   21   22 ar
    46   21   45 1
    47   22   23 ar
    48   22   46 1
    49   23   24 ar
    50   23   25 1
    51   24   50 1
    52   25   47 1
    53   25   48 1
@<TRIPOS>MOLECULE
CHEMBL42863__3
   49    52     0     0     0
SMALL
USER_CHARGES

@<TRIPOS>ATOM
      1 C1         -0.1656    1.3592   -0.3483 C.3       1 <0>        -0.0477
      2 N1         -0.0790   -0.0953   -0.1611 N.4       1 <0>        -0.3925
      3 C2         -1.4328   -0.6561    0.0021 C.3       1 <0>        -0.0119
      4 C3         -1.4755   -1.3547    1.3774 C.3       1 <0>        -0.1406
      5 C4          0.0207   -1.6416    1.6703 C.3       1 <0>        -0.1381
      6 C5          0.7045   -0.3945    1.0565 C.3       1 <0>         0.0314
      7 C6          2.1567   -0.7086    0.6916 C.3       1 <0>         0.0344
      8 O1          2.2046   -1.9097   -0.0810 O.3       1 <0>        -0.3190
      9 C7          3.4285   -2.3316   -0.4889 C.ar      1 <0>         0.1331
     10 C8          4.5551   -1.6131   -0.1505 C.ar      1 <0>        -0.2032
     11 C9          5.8153   -2.0281   -0.5584 C.ar      1 <0>        -0.0645
     12 C10         5.9720   -3.1761   -1.3168 C.ar      1 <0>        -0.0411
     13 C11         4.8329   -3.9346   -1.6791 C.ar      1 <0>         0.0024
     14 C12         3.5511   -3.5095   -1.2552 C.ar      1 <0>        -0.0609
     15 C13         2.4224   -4.2655   -1.6111 C.ar      1 <0>        -0.1037
     16 C14         2.5756   -5.3976   -2.3521 C.ar      1 <0>        -0.1105
     17 C15         3.8380   -5.8186   -2.7637 C.ar      1 <0>        -0.1069
     18 C16         4.9527   -5.1026   -2.4462 C.ar      1 <0>        -0.0906
     19 C17         7.3211   -3.6069   -1.7461 C.ar      1 <0>         0.2076
     20 C18         8.3554   -3.6688   -0.8139 C.ar      1 <0>        -0.2156
     21 C19         9.6142   -4.0739   -1.2264 C.ar      1 <0>        -0.0286
     22 C20         9.8013   -4.4048   -2.5584 C.ar      1 <0>        -0.2335
     23 C21         8.7270   -4.3218   -3.4388 C.ar      1 <0>         0.4082
     24 N2          7.5341   -3.9364   -3.0156 N.ar      1 <0>        -0.5351
     25 N3          8.9079   -4.6519   -4.7768 N.pl3     1 <0>        -0.8500
     26 H1          0.8376    1.7724   -0.4532 H         1 <0>         0.1211
     27 H2         -0.7436    1.5761   -1.2466 H         1 <0>         0.1254
     28 H3         -0.6550    1.8082    0.5160 H         1 <0>         0.1239
     29 H4         -2.1721    0.1442   -0.0304 H         1 <0>         0.1332
     30 H5         -1.6320   -1.3801   -0.7880 H         1 <0>         0.1320
     31 H6         -1.8960   -0.6917    2.1336 H         1 <0>         0.0992
     32 H7         -2.0421   -2.2841    1.3201 H         1 <0>         0.1142
     33 H8          0.2045   -1.6993    2.7432 H         1 <0>         0.1181
     34 H9          0.3488   -2.5527    1.1700 H         1 <0>         0.1104
     35 H10         0.6598    0.4437    1.7519 H         1 <0>         0.1588
     36 H11         2.5714    0.1145    0.1098 H         1 <0>         0.0884
     37 H12         2.7402   -0.8394    1.6030 H         1 <0>         0.1122
     38 H13         4.4558   -0.7144    0.4401 H         1 <0>         0.1313
     39 H14         6.6836   -1.4486   -0.2815 H         1 <0>         0.1349
     40 H15         1.4378   -3.9508   -1.2983 H         1 <0>         0.1258
     41 H16         1.7061   -5.9775   -2.6243 H         1 <0>         0.1272
     42 H17         3.9336   -6.7202   -3.3504 H         1 <0>         0.1283
     43 H18         5.9253   -5.4398   -2.7729 H         1 <0>         0.1392
     44 H19         8.1775   -3.4038    0.2179 H         1 <0>         0.1333
     45 H20        10.4328   -4.1301   -0.5241 H         1 <0>         0.1387
     46 H21        10.7714   -4.7237   -2.9100 H         1 <0>         0.1344
     47 H22         9.7794   -4.9383   -5.0922 H         1 <0>         0.4113
     48 H23         8.1627   -4.5959   -5.3952 H         1 <0>         0.4048
     49 H24         0.3662   -0.5157   -0.9631 H         1 <0>         0.4306
@<TRIPOS>BOND
     1    1    2 1
     2    1   26 1
     3    1   27 1
     4    1   28 1
     5    2    6 1
     6    2    3 1
     7    2   49 1
     8    3    4 1
     9    3   29 1
    10    3   30 1
    11    4    5 1
    12    4   31 1
    13    4   32 1
    14    5    6 1
    15    5   33 1
    16    5   34 1
    17    6    7 1
    18    6   35 1
    19    7    8 1
    20    7   36 1
    21    7   37 1
    22    8    9 1
    23    9   14 ar
    24    9   10 ar
    25   10   11 ar
    26   10   38 1
    27   11   12 ar
    28   11   39 1
    29   12   13 ar
    30   12   19 1
    31   13   18 ar
    32   13   14 ar
    33   14   15 ar
    34   15   16 ar
    35   15   40 1
    36   16   17 ar
    37   16   41 1
    38   17   18 ar
    39   17   42 1
    40   18   43 1
    41   19   24 ar
    42   19   20 ar
    43   20   21 ar
    44   20   44 1
    45   21   22 ar
    46   21   45 1
    47   22   23 ar
    48   22   46 1
    49   23   24 ar
    50   23   25 1
    51   25   47 1
    52   25   48 1
@<TRIPOS>MOLECULE
CHEMBL290476
   51    54     0     0     0
SMALL
USER_CHARGES

@<TRIPOS>ATOM
      1 C1          0.5671    0.3389    1.1973 C.ar      1 <0>         0.0412
      2 C2          1.7805    1.0091    1.1999 C.ar      1 <0>        -0.1574
      3 C3          2.3793    1.3355   -0.0135 C.ar      1 <0>         0.2312
      4 N1          1.7992    1.0110   -1.1631 N.ar      1 <0>        -0.5054
      5 C4          0.6416    0.3715   -1.1972 C.ar      1 <0>         0.4581
      6 C5         -0.0093    0.0162   -0.0193 C.ar      1 <0>        -0.1946
      7 N2          0.0691    0.0509   -2.4224 N.pl3     1 <0>        -0.8186
      8 C6          3.6769    2.0527   -0.0225 C.ar      1 <0>        -0.1237
      9 C7          4.7091    1.6344    0.8148 C.ar      1 <0>        -0.0262
     10 C8          5.9148    2.3024    0.8043 C.ar      1 <0>        -0.2013
     11 C9          6.0987    3.3892   -0.0386 C.ar      1 <0>         0.1712
     12 C10         5.0716    3.8110   -0.8765 C.ar      1 <0>        -0.1119
     13 C11         3.8652    3.1431   -0.8744 C.ar      1 <0>        -0.0320
     14 C12         2.9216    3.7846   -1.8690 C.3       1 <0>        -0.1008
     15 C13         3.5291    5.1724   -2.1644 C.3       1 <0>        -0.1198
     16 C14         5.0247    4.9509   -1.8716 C.3       1 <0>        -0.0773
     17 O1          7.2882    4.0452   -0.0453 O.3       1 <0>        -0.3187
     18 C15         8.3008    3.5615    0.8395 C.3       1 <0>         0.0230
     19 C16         9.5590    4.4195    0.6923 C.3       1 <0>         0.0028
     20 N3          9.2731    5.7889    1.1405 N.4       1 <0>        -0.3968
     21 C17         9.0542    5.8118    2.6094 C.3       1 <0>        -0.0110
     22 C18         9.3327    7.2886    2.9864 C.3       1 <0>        -0.1448
     23 C19        10.5096    7.6664    2.0578 C.3       1 <0>        -0.1460
     24 C20        10.4419    6.6609    0.8934 C.3       1 <0>        -0.0089
     25 H1          0.0838    0.0701    2.1250 H         1 <0>         0.1802
     26 H2          2.2556    1.2752    2.1325 H         1 <0>         0.1793
     27 H3         -0.9539   -0.5061   -0.0540 H         1 <0>         0.1841
     28 H4          0.5181    0.2960   -3.2466 H         1 <0>         0.4216
     29 H5         -0.7795   -0.4179   -2.4535 H         1 <0>         0.4438
     30 H6          4.5646    0.7888    1.4710 H         1 <0>         0.1495
     31 H7          6.7163    1.9801    1.4525 H         1 <0>         0.1475
     32 H8          2.8732    3.1907   -2.7818 H         1 <0>         0.0883
     33 H9          1.9282    3.8915   -1.4333 H         1 <0>         0.0855
     34 H10         3.3700    5.4515   -3.2060 H         1 <0>         0.0929
     35 H11         3.1183    5.9263   -1.4929 H         1 <0>         0.0833
     36 H12         5.4710    5.8473   -1.4412 H         1 <0>         0.0837
     37 H13         5.5424    4.6730   -2.7897 H         1 <0>         0.0898
     38 H14         7.9418    3.6164    1.8672 H         1 <0>         0.0915
     39 H15         8.5358    2.5265    0.5915 H         1 <0>         0.1138
     40 H16        10.3595    3.9979    1.3002 H         1 <0>         0.1536
     41 H17         9.8671    4.4363   -0.3532 H         1 <0>         0.1435
     42 H18         8.0260    5.5409    2.8494 H         1 <0>         0.1314
     43 H19         9.7559    5.1472    3.1134 H         1 <0>         0.1367
     44 H20         8.4621    7.9106    2.7782 H         1 <0>         0.0983
     45 H21         9.6255    7.3709    4.0331 H         1 <0>         0.1194
     46 H22        10.3871    8.6839    1.6866 H         1 <0>         0.1075
     47 H23        11.4567    7.5678    2.5882 H         1 <0>         0.1068
     48 H24        11.3525    6.0625    0.8661 H         1 <0>         0.1333
     49 H25        10.3156    7.1928   -0.0496 H         1 <0>         0.1342
     50 H26         8.4620    6.1501    0.6612 H         1 <0>         0.4313
     51 H27         2.2340    1.2485   -1.9970 H         1 <0>         0.4368
@<TRIPOS>BOND
     1    1    6 ar
     2    1    2 ar
     3    1   25 1
     4    2    3 ar
     5    2   26 1
     6    3    4 ar
     7    3    8 1
     8    4    5 ar
     9    4   51 1
    10    5    6 ar
    11    5    7 1
    12    6   27 1
    13    7   28 1
    14    7   29 1
    15    8   13 ar
    16    8    9 ar
    17    9   10 ar
    18    9   30 1
    19   10   11 ar
    20   10   31 1
    21   11   12 ar
    22   11   17 1
    23   12   16 1
    24   12   13 ar
    25   13   14 1
    26   14   15 1
    27   14   32 1
    28   14   33 1
    29   15   16 1
    30   15   34 1
    31   15   35 1
    32   16   36 1
    33   16   37 1
    34   17   18 1
    35   18   19 1
    36   18   38 1
    37   18   39 1
    38   19   20 1
    39   19   40 1
    40   19   41 1
    41   20   24 1
    42   20   21 1
    43   20   50 1
    44   21   22 1
    45   21   42 1
    46   21   43 1
    47   22   23 1
    48   22   44 1
    49   22   45 1
    50   23   24 1
    51   23   46 1
    52   23   47 1
    53   24   48 1
    54   24   49 1
@<TRIPOS>MOLECULE
CHEMBL290476__1
   50    53     0     0     0
SMALL
USER_CHARGES

@<TRIPOS>ATOM
      1 C1         -0.0167    1.3801    0.0096 C.ar      1 <0>        -0.0279
      2 C2          1.1911    2.0603    0.0018 C.ar      1 <0>        -0.2249
      3 C3          2.3793    1.3355   -0.0135 C.ar      1 <0>         0.2118
      4 N1          2.3617    0.0076   -0.0205 N.ar      1 <0>        -0.5366
      5 C4          1.2248   -0.6688   -0.0132 C.ar      1 <0>         0.4113
      6 C5          0.0021   -0.0041    0.0020 C.ar      1 <0>        -0.2371
      7 N2          1.2517   -2.0585   -0.0209 N.pl3     1 <0>        -0.8501
      8 C6          3.6769    2.0527   -0.0225 C.ar      1 <0>        -0.0584
      9 C7          3.7021    3.4458   -0.0099 C.ar      1 <0>        -0.0572
     10 C8          4.9097    4.1105   -0.0178 C.ar      1 <0>        -0.2086
     11 C9          6.0970    3.3924   -0.0386 C.ar      1 <0>         0.1360
     12 C10         6.0774    2.0016   -0.0513 C.ar      1 <0>        -0.1298
     13 C11         4.8725    1.3313   -0.0378 C.ar      1 <0>        -0.0061
     14 C12         5.1160   -0.1626   -0.0489 C.3       1 <0>        -0.0747
     15 C13         6.5816   -0.3292   -0.5036 C.3       1 <0>        -0.1279
     16 C14         7.2176    1.0061   -0.0745 C.3       1 <0>        -0.0689
     17 O1          7.2848    4.0514   -0.0471 O.3       1 <0>        -0.3258
     18 C15         7.2346    5.4794   -0.0338 C.3       1 <0>         0.0256
     19 C16         8.6582    6.0399   -0.0460 C.3       1 <0>         0.0040
     20 N3          9.3130    5.6859   -1.3125 N.4       1 <0>        -0.3958
     21 C17         8.6821    6.4214   -2.4383 C.3       1 <0>        -0.0104
     22 C18         9.7780    6.4009   -3.5334 C.3       1 <0>        -0.1447
     23 C19        11.0821    6.5704   -2.7207 C.3       1 <0>        -0.1449
     24 C20        10.7280    6.1157   -1.2926 C.3       1 <0>        -0.0086
     25 H1         -0.9527    1.9187    0.0259 H         1 <0>         0.1372
     26 H2          1.2100    3.1401    0.0070 H         1 <0>         0.1319
     27 H3         -0.9224   -0.5623    0.0082 H         1 <0>         0.1333
     28 H4          2.1010   -2.5271   -0.0316 H         1 <0>         0.4043
     29 H5          0.4213   -2.5597   -0.0157 H         1 <0>         0.4111
     30 H6          2.7774    4.0037    0.0056 H         1 <0>         0.1387
     31 H7          4.9318    5.1902   -0.0081 H         1 <0>         0.1328
     32 H8          4.9809   -0.5754    0.9508 H         1 <0>         0.0866
     33 H9          4.4433   -0.6503   -0.7544 H         1 <0>         0.0964
     34 H10         7.0523   -1.1701    0.0057 H         1 <0>         0.0812
     35 H11         6.6407   -0.4475   -1.5855 H         1 <0>         0.0720
     36 H12         7.9785    1.3190   -0.7895 H         1 <0>         0.0704
     37 H13         7.6513    0.9044    0.9204 H         1 <0>         0.0792
     38 H14         6.6976    5.8324   -0.9142 H         1 <0>         0.0854
     39 H15         6.7192    5.8165    0.8656 H         1 <0>         0.1087
     40 H16         8.6225    7.1248    0.0537 H         1 <0>         0.1483
     41 H17         9.2224    5.6171    0.7853 H         1 <0>         0.1410
     42 H18         7.7858    5.9045   -2.7812 H         1 <0>         0.1335
     43 H19         8.4491    7.4453   -2.1463 H         1 <0>         0.1349
     44 H20         9.7752    5.4489   -4.0641 H         1 <0>         0.0982
     45 H21         9.6453    7.2310   -4.2273 H         1 <0>         0.1172
     46 H22        11.8699    5.9405   -3.1338 H         1 <0>         0.1055
     47 H23        11.3937    7.6149   -2.7188 H         1 <0>         0.1043
     48 H24        10.8544    6.9452   -0.5968 H         1 <0>         0.1313
     49 H25        11.3654    5.2814   -0.9998 H         1 <0>         0.1328
     50 H26         9.2537    4.6909   -1.4690 H         1 <0>         0.4336
@<TRIPOS>BOND
     1    1    6 ar
     2    1    2 ar
     3    1   25 1
     4    2    3 ar
     5    2   26 1
     6    3    4 ar
     7    3    8 1
     8    4    5 ar
     9    5    6 ar
    10    5    7 1
    11    6   27 1
    12    7   28 1
    13    7   29 1
    14    8   13 ar
    15    8    9 ar
    16    9   10 ar
    17    9   30 1
    18   10   11 ar
    19   10   31 1
    20   11   12 ar
    21   11   17 1
    22   12   16 1
    23   12   13 ar
    24   13   14 1
    25   14   15 1
    26   14   32 1
    27   14   33 1
    28   15   16 1
    29   15   34 1
    30   15   35 1
    31   16   36 1
    32   16   37 1
    33   17   18 1
    34   18   19 1
    35   18   38 1
    36   18   39 1
    37   19   20 1
    38   19   40 1
    39   19   41 1
    40   20   24 1
    41   20   21 1
    42   20   50 1
    43   21   22 1
    44   21   42 1
    45   21   43 1
    46   22   23 1
    47   22   44 1
    48   22   45 1
    49   23   24 1
    50   23   46 1
    51   23   47 1
    52   24   48 1
    53   24   49 1
@<TRIPOS>MOLECULE
CHEMBL593105
   19    20     0     0     0
SMALL
USER_CHARGES

@<TRIPOS>ATOM
      1 C1         -0.0169    1.3926    0.0097 C.ar      1 <0>        -0.1608
      2 C2          1.1271    2.1216    0.0027 C.ar      1 <0>         0.0289
      3 C3          2.3736    1.4600   -0.0128 C.ar      1 <0>        -0.1847
      4 C4          3.6940    1.8693   -0.0236 C.2       1 <0>         0.1391
      5 N1          4.4650    0.7736   -0.0372 N.pl3     1 <0>        -0.2605
      6 N2          3.6639   -0.3741   -0.0354 N.2       1 <0>        -0.2149
      7 C5          2.3943   -0.0112   -0.0209 C.ar      1 <0>         0.1512
      8 C6          1.1642   -0.7034   -0.0125 C.ar      1 <0>        -0.0479
      9 C7          0.0021   -0.0041    0.0020 C.ar      1 <0>         0.0485
     10 N3          1.1425   -2.1840   -0.0202 N.pl3     1 <0>         0.0350
     11 O1          0.0868   -2.7732   -0.0130 O.2       1 <0>        -0.1623
     12 O2          2.1805   -2.8037   -0.0338 O.3       1 <0>        -0.1358
     13 N4          5.8659    0.7763   -0.0514 N.pl3     1 <0>         0.1867
     14 O3          6.4684    1.8244   -0.0521 O.2       1 <0>        -0.0962
     15 O4          6.4723   -0.2696   -0.0630 O.3       1 <0>        -0.0397
     16 H1         -0.9672    1.9055    0.0261 H         1 <0>         0.1615
     17 H2          1.0843    3.2007    0.0086 H         1 <0>         0.1588
     18 H3          4.0425    2.8916   -0.0216 H         1 <0>         0.2225
     19 H4         -0.9344   -0.5420    0.0081 H         1 <0>         0.1706
@<TRIPOS>BOND
     1    1    9 ar
     2    1    2 ar
     3    1   16 1
     4    2    3 ar
     5    2   17 1
     6    3    7 ar
     7    3    4 2
     8    4    5 1
     9    4   18 1
    10    5    6 1
    11    5   13 1
    12    6    7 2
    13    7    8 ar
    14    8    9 ar
    15    8   10 1
    16    9   19 1
    17   10   11 2
    18   10   12 1
    19   13   14 2
    20   13   15 1
@<TRIPOS>MOLECULE
CHEMBL87544
   60    63     0     0     0
SMALL
USER_CHARGES

@<TRIPOS>ATOM
      1 C1         -0.0167    1.3781    0.0096 C.ar      1 <0>        -0.1080
      2 C2          1.1709    2.0855    0.0021 C.ar      1 <0>        -0.1148
      3 C3          2.3773    1.4107   -0.0130 C.ar      1 <0>        -0.1035
      4 C4          2.3960    0.0285   -0.0201 C.ar      1 <0>        -0.0895
      5 C5          1.2084   -0.6789   -0.0117 C.ar      1 <0>        -0.1054
      6 C6          0.0021   -0.0041    0.0020 C.ar      1 <0>        -0.1165
      7 C7          3.7112   -0.7071   -0.0376 C.3       1 <0>        -0.0961
      8 C8          4.1644   -0.9594    1.3773 C.2       1 <0>         0.5225
      9 O1          3.4863   -0.5793    2.3082 O.2       1 <0>        -0.4915
     10 N1          5.3234   -1.6075    1.6082 N.am      1 <0>        -0.6398
     11 C9          6.1650   -2.0722    0.4948 C.3       1 <0>         0.0837
     12 C10         6.5083   -3.5471    0.7280 C.3       1 <0>        -0.0212
     13 N2          7.1181   -3.7029    2.0547 N.4       1 <0>        -0.3847
     14 C11         6.1442   -3.3544    3.0968 C.3       1 <0>        -0.0257
     15 C12         5.7856   -1.8649    2.9809 C.3       1 <0>         0.0886
     16 C13         7.5468   -5.0964    2.2340 C.3       1 <0>        -0.0060
     17 C14         8.2932   -5.2335    3.5625 C.3       1 <0>        -0.1137
     18 C15         8.7330   -6.6631    3.7465 C.ar      1 <0>        -0.0625
     19 C16         7.8977   -7.5647    4.3811 C.ar      1 <0>        -0.0999
     20 C17         8.2953   -8.8752    4.5523 C.ar      1 <0>        -0.0637
     21 C18         9.5410   -9.2894    4.0844 C.ar      1 <0>        -0.0861
     22 C19        10.3785   -8.3767    3.4458 C.ar      1 <0>        -0.0939
     23 C20         9.9682   -7.0701    3.2751 C.ar      1 <0>        -0.0986
     24 C21         9.9742  -10.6965    4.2659 C.ar      1 <0>         0.2206
     25 C22         9.1283  -11.6017    4.9003 C.ar      1 <0>        -0.1583
     26 C23         9.5422  -12.9142    5.0646 C.ar      1 <0>         0.0424
     27 C24        10.7899  -13.2802    4.5888 C.ar      1 <0>        -0.1929
     28 C25        11.5871  -12.3261    3.9636 C.ar      1 <0>         0.4614
     29 N3         11.1625  -11.0817    3.8169 N.ar      1 <0>        -0.5085
     30 N4         12.8411  -12.6857    3.4837 N.pl3     1 <0>        -0.8170
     31 H1         -0.9591    1.9053    0.0259 H         1 <0>         0.1276
     32 H2          1.1563    3.1654    0.0076 H         1 <0>         0.1273
     33 H3          3.3051    1.9634   -0.0196 H         1 <0>         0.1194
     34 H4          1.2231   -1.7588   -0.0176 H         1 <0>         0.1169
     35 H5         -0.9258   -0.5567    0.0082 H         1 <0>         0.1262
     36 H6          3.5884   -1.6586   -0.5549 H         1 <0>         0.1057
     37 H7          4.4573   -0.1052   -0.5563 H         1 <0>         0.1089
     38 H8          5.6214   -1.9666   -0.4441 H         1 <0>         0.1339
     39 H9          7.0820   -1.4840    0.4585 H         1 <0>         0.0999
     40 H10         5.5985   -4.1450    0.6737 H         1 <0>         0.1358
     41 H11         7.2097   -3.8823   -0.0360 H         1 <0>         0.1458
     42 H12         5.2454   -3.9581    2.9708 H         1 <0>         0.1359
     43 H13         6.5773   -3.5475    4.0782 H         1 <0>         0.1436
     44 H14         6.6649   -1.2561    3.1915 H         1 <0>         0.0959
     45 H15         4.9910   -1.6222    3.6865 H         1 <0>         0.1374
     46 H16         6.6728   -5.7477    2.2394 H         1 <0>         0.1337
     47 H17         8.2073   -5.3816    1.4151 H         1 <0>         0.1354
     48 H18         9.1673   -4.5823    3.5571 H         1 <0>         0.1053
     49 H19         7.6328   -4.9483    4.3814 H         1 <0>         0.1056
     50 H20         6.9327   -7.2425    4.7435 H         1 <0>         0.1449
     51 H21         7.6425   -9.5783    5.0482 H         1 <0>         0.1483
     52 H22        11.3449   -8.6923    3.0813 H         1 <0>         0.1271
     53 H23        10.6144   -6.3630    2.7762 H         1 <0>         0.1424
     54 H24         8.1608  -11.2848    5.2607 H         1 <0>         0.1809
     55 H25         8.9051  -13.6362    5.5537 H         1 <0>         0.1818
     56 H26        11.1409  -14.2952    4.7020 H         1 <0>         0.1854
     57 H27        13.1562  -13.5974    3.5854 H         1 <0>         0.4446
     58 H28        13.4011  -12.0249    3.0470 H         1 <0>         0.4220
     59 H29        11.7343  -10.4349    3.3745 H         1 <0>         0.4358
     60 H30         7.9199   -3.0948    2.1284 H         1 <0>         0.4252
@<TRIPOS>BOND
     1    1    6 ar
     2    1    2 ar
     3    1   31 1
     4    2    3 ar
     5    2   32 1
     6    3    4 ar
     7    3   33 1
     8    4    5 ar
     9    4    7 1
    10    5    6 ar
    11    5   34 1
    12    6   35 1
    13    7    8 1
    14    7   36 1
    15    7   37 1
    16    8    9 2
    17    8   10 am
    18   10   15 1
    19   10   11 1
    20   11   12 1
    21   11   38 1
    22   11   39 1
    23   12   13 1
    24   12   40 1
    25   12   41 1
    26   13   14 1
    27   13   16 1
    28   13   60 1
    29   14   15 1
    30   14   42 1
    31   14   43 1
    32   15   44 1
    33   15   45 1
    34   16   17 1
    35   16   46 1
    36   16   47 1
    37   17   18 1
    38   17   48 1
    39   17   49 1
    40   18   23 ar
    41   18   19 ar
    42   19   20 ar
    43   19   50 1
    44   20   21 ar
    45   20   51 1
    46   21   22 ar
    47   21   24 1
    48   22   23 ar
    49   22   52 1
    50   23   53 1
    51   24   29 ar
    52   24   25 ar
    53   25   26 ar
    54   25   54 1
    55   26   27 ar
    56   26   55 1
    57   27   28 ar
    58   27   56 1
    59   28   29 ar
    60   28   30 1
    61   29   59 1
    62   30   57 1
    63   30   58 1
@<TRIPOS>MOLECULE
CHEMBL87544__1
   58    61     0     0     0
SMALL
USER_CHARGES

@<TRIPOS>ATOM
      1 C1         -0.0167    1.3781    0.0096 C.ar      1 <0>        -0.1190
      2 C2          1.1709    2.0855    0.0021 C.ar      1 <0>        -0.1185
      3 C3          2.3773    1.4107   -0.0130 C.ar      1 <0>        -0.1051
      4 C4          2.3960    0.0285   -0.0201 C.ar      1 <0>        -0.0698
      5 C5          1.2084   -0.6789   -0.0117 C.ar      1 <0>        -0.1057
      6 C6          0.0021   -0.0041    0.0020 C.ar      1 <0>        -0.1188
      7 C7          3.7112   -0.7071   -0.0376 C.3       1 <0>        -0.1009
      8 C8          4.1644   -0.9594    1.3773 C.2       1 <0>         0.5170
      9 O1          3.4863   -0.5793    2.3082 O.2       1 <0>        -0.5280
     10 N1          5.3234   -1.6075    1.6082 N.am      1 <0>        -0.6181
     11 C9          6.1638   -2.0715    0.4940 C.3       1 <0>         0.1107
     12 C10         6.4913   -3.5521    0.7151 C.3       1 <0>         0.0400
     13 N2          7.0784   -3.7263    2.0503 N.3       1 <0>        -0.5376
     14 C11         6.1238   -3.3580    3.1044 C.3       1 <0>         0.0375
     15 C12         5.7842   -1.8641    2.9812 C.3       1 <0>         0.1167
     16 C13         7.5642   -5.1001    2.2366 C.3       1 <0>         0.0625
     17 C14         8.3847   -5.1805    3.5255 C.3       1 <0>        -0.0793
     18 C15         8.8831   -6.5898    3.7166 C.ar      1 <0>        -0.0702
     19 C16         8.1146   -7.5036    4.4151 C.ar      1 <0>        -0.1233
     20 C17         8.5660   -8.7956    4.5932 C.ar      1 <0>        -0.0747
     21 C18         9.7986   -9.1789    4.0678 C.ar      1 <0>        -0.0547
     22 C19        10.5686   -8.2541    3.3650 C.ar      1 <0>        -0.0939
     23 C20        10.1047   -6.9663    3.1881 C.ar      1 <0>        -0.1184
     24 C21        10.2893  -10.5660    4.2564 C.ar      1 <0>         0.2176
     25 C22        11.5242  -10.9374    3.7327 C.ar      1 <0>        -0.2237
     26 C23        11.9739  -12.2358    3.9148 C.ar      1 <0>        -0.0297
     27 C24        11.1736  -13.1222    4.6153 C.ar      1 <0>        -0.2425
     28 C25         9.9491  -12.6871    5.1132 C.ar      1 <0>         0.4094
     29 N3          9.5489  -11.4397    4.9277 N.ar      1 <0>        -0.5409
     30 N4          9.1399  -13.5712    5.8171 N.pl3     1 <0>        -0.8525
     31 H1         -0.9591    1.9053    0.0259 H         1 <0>         0.1218
     32 H2          1.1563    3.1654    0.0076 H         1 <0>         0.1225
     33 H3          3.3051    1.9634   -0.0196 H         1 <0>         0.1192
     34 H4          1.2231   -1.7588   -0.0176 H         1 <0>         0.1180
     35 H5         -0.9258   -0.5567    0.0082 H         1 <0>         0.1221
     36 H6          3.5884   -1.6586   -0.5549 H         1 <0>         0.1020
     37 H7          4.4573   -0.1052   -0.5563 H         1 <0>         0.1036
     38 H8          5.6245   -1.9522   -0.4458 H         1 <0>         0.0900
     39 H9          7.0869   -1.4926    0.4657 H         1 <0>         0.0807
     40 H10         5.5778   -4.1419    0.6396 H         1 <0>         0.0399
     41 H11         7.2026   -3.8841   -0.0412 H         1 <0>         0.0903
     42 H12         5.2154   -3.9505    2.9956 H         1 <0>         0.0396
     43 H13         6.5686   -3.5493    4.0809 H         1 <0>         0.0914
     44 H14         6.6716   -1.2656    3.1875 H         1 <0>         0.0763
     45 H15         4.9939   -1.6075    3.6867 H         1 <0>         0.0958
     46 H16         6.7148   -5.7799    2.3037 H         1 <0>         0.0372
     47 H17         8.1895   -5.3824    1.3896 H         1 <0>         0.0795
     48 H18         9.2341   -4.5007    3.4585 H         1 <0>         0.0841
     49 H19         7.7594   -4.8982    4.3725 H         1 <0>         0.0739
     50 H20         7.1597   -7.2054    4.8221 H         1 <0>         0.1227
     51 H21         7.9653   -9.5082    5.1390 H         1 <0>         0.1331
     52 H22        11.5245   -8.5458    2.9557 H         1 <0>         0.1285
     53 H23        10.6984   -6.2501    2.6396 H         1 <0>         0.1272
     54 H24        12.1250  -10.2222    3.1904 H         1 <0>         0.1344
     55 H25        12.9282  -12.5495    3.5182 H         1 <0>         0.1358
     56 H26        11.4962  -14.1407    4.7735 H         1 <0>         0.1310
     57 H27         9.4297  -14.4859    5.9591 H         1 <0>         0.4089
     58 H28         8.2854  -13.2734    6.1664 H         1 <0>         0.4039
@<TRIPOS>BOND
     1    1    6 ar
     2    1    2 ar
     3    1   31 1
     4    2    3 ar
     5    2   32 1
     6    3    4 ar
     7    3   33 1
     8    4    5 ar
     9    4    7 1
    10    5    6 ar
    11    5   34 1
    12    6   35 1
    13    7    8 1
    14    7   36 1
    15    7   37 1
    16    8    9 2
    17    8   10 am
    18   10   15 1
    19   10   11 1
    20   11   12 1
    21   11   38 1
    22   11   39 1
    23   12   13 1
    24   12   40 1
    25   12   41 1
    26   13   14 1
    27   13   16 1
    28   14   15 1
    29   14   42 1
    30   14   43 1
    31   15   44 1
    32   15   45 1
    33   16   17 1
    34   16   46 1
    35   16   47 1
    36   17   18 1
    37   17   48 1
    38   17   49 1
    39   18   23 ar
    40   18   19 ar
    41   19   20 ar
    42   19   50 1
    43   20   21 ar
    44   20   51 1
    45   21   22 ar
    46   21   24 1
    47   22   23 ar
    48   22   52 1
    49   23   53 1
    50   24   29 ar
    51   24   25 ar
    52   25   26 ar
    53   25   54 1
    54   26   27 ar
    55   26   55 1
    56   27   28 ar
    57   27   56 1
    58   28   29 ar
    59   28   30 1
    60   30   57 1
    61   30   58 1
@<TRIPOS>MOLECULE
CHEMBL87544__2
   59    62     0     0     0
SMALL
USER_CHARGES

@<TRIPOS>ATOM
      1 C1         -0.0167    1.3781    0.0096 C.ar      1 <0>        -0.1100
      2 C2          1.1709    2.0855    0.0021 C.ar      1 <0>        -0.1158
      3 C3          2.3773    1.4107   -0.0130 C.ar      1 <0>        -0.1038
      4 C4          2.3960    0.0285   -0.0201 C.ar      1 <0>        -0.0862
      5 C5          1.2084   -0.6789   -0.0117 C.ar      1 <0>        -0.1049
      6 C6          0.0021   -0.0041    0.0020 C.ar      1 <0>        -0.1168
      7 C7          3.7112   -0.7071   -0.0376 C.3       1 <0>        -0.0974
      8 C8          4.1644   -0.9594    1.3773 C.2       1 <0>         0.5229
      9 O1          3.4863   -0.5793    2.3082 O.2       1 <0>        -0.4955
     10 N1          5.3234   -1.6075    1.6082 N.am      1 <0>        -0.6384
     11 C9          6.1650   -2.0722    0.4948 C.3       1 <0>         0.0842
     12 C10         6.5083   -3.5471    0.7280 C.3       1 <0>        -0.0216
     13 N2          7.1181   -3.7029    2.0547 N.4       1 <0>        -0.3842
     14 C11         6.1442   -3.3544    3.0968 C.3       1 <0>        -0.0256
     15 C12         5.7856   -1.8649    2.9809 C.3       1 <0>         0.0895
     16 C13         7.5468   -5.0964    2.2340 C.3       1 <0>        -0.0071
     17 C14         8.2932   -5.2335    3.5625 C.3       1 <0>        -0.1003
     18 C15         8.7330   -6.6631    3.7465 C.ar      1 <0>        -0.1018
     19 C16         7.8977   -7.5647    4.3811 C.ar      1 <0>        -0.1134
     20 C17         8.2953   -8.8752    4.5523 C.ar      1 <0>        -0.0762
     21 C18         9.5410   -9.2894    4.0844 C.ar      1 <0>        -0.0249
     22 C19        10.3785   -8.3767    3.4458 C.ar      1 <0>        -0.0955
     23 C20         9.9682   -7.0701    3.2751 C.ar      1 <0>        -0.1106
     24 C21         9.9742  -10.6965    4.2659 C.ar      1 <0>         0.1996
     25 C22        11.2225  -11.0989    3.8002 C.ar      1 <0>        -0.2186
     26 C23        11.6180  -12.4158    3.9752 C.ar      1 <0>        -0.0290
     27 C24        10.7517  -13.2891    4.6108 C.ar      1 <0>        -0.2316
     28 C25         9.5173  -12.8227    5.0528 C.ar      1 <0>         0.4118
     29 N3          9.1697  -11.5585    4.8759 N.ar      1 <0>        -0.5397
     30 N4          8.6420  -13.6934    5.6914 N.pl3     1 <0>        -0.8495
     31 H1         -0.9591    1.9053    0.0259 H         1 <0>         0.1263
     32 H2          1.1563    3.1654    0.0076 H         1 <0>         0.1262
     33 H3          3.3051    1.9634   -0.0196 H         1 <0>         0.1194
     34 H4          1.2231   -1.7588   -0.0176 H         1 <0>         0.1178
     35 H5         -0.9258   -0.5567    0.0082 H         1 <0>         0.1256
     36 H6          3.5884   -1.6586   -0.5549 H         1 <0>         0.1062
     37 H7          4.4573   -0.1052   -0.5563 H         1 <0>         0.1086
     38 H8          5.6214   -1.9666   -0.4441 H         1 <0>         0.1316
     39 H9          7.0820   -1.4840    0.4585 H         1 <0>         0.0992
     40 H10         5.5985   -4.1450    0.6737 H         1 <0>         0.1345
     41 H11         7.2097   -3.8823   -0.0360 H         1 <0>         0.1458
     42 H12         5.2454   -3.9581    2.9708 H         1 <0>         0.1346
     43 H13         6.5773   -3.5475    4.0782 H         1 <0>         0.1451
     44 H14         6.6649   -1.2561    3.1915 H         1 <0>         0.0953
     45 H15         4.9910   -1.6222    3.6865 H         1 <0>         0.1355
     46 H16         6.6728   -5.7477    2.2394 H         1 <0>         0.1321
     47 H17         8.2073   -5.3816    1.4151 H         1 <0>         0.1355
     48 H18         9.1673   -4.5823    3.5571 H         1 <0>         0.0968
     49 H19         7.6328   -4.9483    4.3814 H         1 <0>         0.0954
     50 H20         6.9327   -7.2425    4.7435 H         1 <0>         0.1261
     51 H21         7.6425   -9.5783    5.0482 H         1 <0>         0.1399
     52 H22        11.3449   -8.6923    3.0813 H         1 <0>         0.1350
     53 H23        10.6144   -6.3630    2.7762 H         1 <0>         0.1283
     54 H24        11.8753  -10.3934    3.3079 H         1 <0>         0.1343
     55 H25        12.5813  -12.7537    3.6228 H         1 <0>         0.1394
     56 H26        11.0310  -14.3214    4.7617 H         1 <0>         0.1355
     57 H27         8.8930  -14.6206    5.8269 H         1 <0>         0.4119
     58 H28         7.7803  -13.3739    6.0016 H         1 <0>         0.4050
     59 H29         7.9199   -3.0948    2.1284 H         1 <0>         0.4237
@<TRIPOS>BOND
     1    1    6 ar
     2    1    2 ar
     3    1   31 1
     4    2    3 ar
     5    2   32 1
     6    3    4 ar
     7    3   33 1
     8    4    5 ar
     9    4    7 1
    10    5    6 ar
    11    5   34 1
    12    6   35 1
    13    7    8 1
    14    7   36 1
    15    7   37 1
    16    8    9 2
    17    8   10 am
    18   10   15 1
    19   10   11 1
    20   11   12 1
    21   11   38 1
    22   11   39 1
    23   12   13 1
    24   12   40 1
    25   12   41 1
    26   13   14 1
    27   13   16 1
    28   13   59 1
    29   14   15 1
    30   14   42 1
    31   14   43 1
    32   15   44 1
    33   15   45 1
    34   16   17 1
    35   16   46 1
    36   16   47 1
    37   17   18 1
    38   17   48 1
    39   17   49 1
    40   18   23 ar
    41   18   19 ar
    42   19   20 ar
    43   19   50 1
    44   20   21 ar
    45   20   51 1
    46   21   22 ar
    47   21   24 1
    48   22   23 ar
    49   22   52 1
    50   23   53 1
    51   24   29 ar
    52   24   25 ar
    53   25   26 ar
    54   25   54 1
    55   26   27 ar
    56   26   55 1
    57   27   28 ar
    58   27   56 1
    59   28   29 ar
    60   28   30 1
    61   30   57 1
    62   30   58 1
@<TRIPOS>MOLECULE
CHEMBL87544__3
   59    62     0     0     0
SMALL
USER_CHARGES

@<TRIPOS>ATOM
      1 C1         -0.0167    1.3781    0.0096 C.ar      1 <0>        -0.1169
      2 C2          1.1709    2.0855    0.0021 C.ar      1 <0>        -0.1174
      3 C3          2.3773    1.4107   -0.0130 C.ar      1 <0>        -0.1049
      4 C4          2.3960    0.0285   -0.0201 C.ar      1 <0>        -0.0732
      5 C5          1.2084   -0.6789   -0.0117 C.ar      1 <0>        -0.1062
      6 C6          0.0021   -0.0041    0.0020 C.ar      1 <0>        -0.1184
      7 C7          3.7112   -0.7071   -0.0376 C.3       1 <0>        -0.0996
      8 C8          4.1644   -0.9594    1.3773 C.2       1 <0>         0.5174
      9 O1          3.4863   -0.5793    2.3082 O.2       1 <0>        -0.5238
     10 N1          5.3234   -1.6075    1.6082 N.am      1 <0>        -0.6204
     11 C9          6.1638   -2.0715    0.4940 C.3       1 <0>         0.1102
     12 C10         6.4913   -3.5521    0.7151 C.3       1 <0>         0.0410
     13 N2          7.0784   -3.7263    2.0503 N.3       1 <0>        -0.5374
     14 C11         6.1238   -3.3580    3.1044 C.3       1 <0>         0.0378
     15 C12         5.7842   -1.8641    2.9812 C.3       1 <0>         0.1160
     16 C13         7.5642   -5.1001    2.2366 C.3       1 <0>         0.0629
     17 C14         8.3847   -5.1805    3.5255 C.3       1 <0>        -0.0929
     18 C15         8.8831   -6.5898    3.7166 C.ar      1 <0>        -0.0292
     19 C16         8.1146   -7.5036    4.4151 C.ar      1 <0>        -0.1104
     20 C17         8.5660   -8.7956    4.5932 C.ar      1 <0>        -0.0607
     21 C18         9.7986   -9.1789    4.0678 C.ar      1 <0>        -0.1162
     22 C19        10.5686   -8.2541    3.3650 C.ar      1 <0>        -0.0915
     23 C20        10.1047   -6.9663    3.1881 C.ar      1 <0>        -0.1063
     24 C21        10.2893  -10.5660    4.2564 C.ar      1 <0>         0.2431
     25 C22         9.5104  -11.4837    4.9553 C.ar      1 <0>        -0.1699
     26 C23         9.9778  -12.7774    5.1256 C.ar      1 <0>         0.0435
     27 C24        11.2102  -13.1125    4.5911 C.ar      1 <0>        -0.2046
     28 C25        11.9394  -12.1475    3.9029 C.ar      1 <0>         0.4571
     29 N3         11.4646  -10.9217    3.7522 N.ar      1 <0>        -0.5092
     30 N4         13.1777  -12.4761    3.3638 N.pl3     1 <0>        -0.8228
     31 H1         -0.9591    1.9053    0.0259 H         1 <0>         0.1231
     32 H2          1.1563    3.1654    0.0076 H         1 <0>         0.1236
     33 H3          3.3051    1.9634   -0.0196 H         1 <0>         0.1192
     34 H4          1.2231   -1.7588   -0.0176 H         1 <0>         0.1171
     35 H5         -0.9258   -0.5567    0.0082 H         1 <0>         0.1227
     36 H6          3.5884   -1.6586   -0.5549 H         1 <0>         0.1015
     37 H7          4.4573   -0.1052   -0.5563 H         1 <0>         0.1039
     38 H8          5.6245   -1.9522   -0.4458 H         1 <0>         0.0924
     39 H9          7.0869   -1.4926    0.4657 H         1 <0>         0.0811
     40 H10         5.5778   -4.1419    0.6396 H         1 <0>         0.0418
     41 H11         7.2026   -3.8841   -0.0412 H         1 <0>         0.0902
     42 H12         5.2154   -3.9505    2.9956 H         1 <0>         0.0414
     43 H13         6.5686   -3.5493    4.0809 H         1 <0>         0.0898
     44 H14         6.6716   -1.2656    3.1875 H         1 <0>         0.0766
     45 H15         4.9939   -1.6075    3.6867 H         1 <0>         0.0977
     46 H16         6.7148   -5.7799    2.3037 H         1 <0>         0.0386
     47 H17         8.1895   -5.3824    1.3896 H         1 <0>         0.0795
     48 H18         9.2341   -4.5007    3.4585 H         1 <0>         0.0934
     49 H19         7.7594   -4.8982    4.3725 H         1 <0>         0.0848
     50 H20         7.1597   -7.2054    4.8221 H         1 <0>         0.1419
     51 H21         7.9653   -9.5082    5.1390 H         1 <0>         0.1420
     52 H22        11.5245   -8.5458    2.9557 H         1 <0>         0.1210
     53 H23        10.6984   -6.2501    2.6396 H         1 <0>         0.1418
     54 H24         8.5531  -11.1909    5.3605 H         1 <0>         0.1801
     55 H25         9.3931  -13.5085    5.6641 H         1 <0>         0.1781
     56 H26        11.6018  -14.1123    4.7073 H         1 <0>         0.1811
     57 H27        13.5292  -13.3741    3.4683 H         1 <0>         0.4416
     58 H28        13.6903  -11.8075    2.8831 H         1 <0>         0.4207
     59 H29        11.9892  -10.2669    3.2654 H         1 <0>         0.4364
@<TRIPOS>BOND
     1    1    6 ar
     2    1    2 ar
     3    1   31 1
     4    2    3 ar
     5    2   32 1
     6    3    4 ar
     7    3   33 1
     8    4    5 ar
     9    4    7 1
    10    5    6 ar
    11    5   34 1
    12    6   35 1
    13    7    8 1
    14    7   36 1
    15    7   37 1
    16    8    9 2
    17    8   10 am
    18   10   15 1
    19   10   11 1
    20   11   12 1
    21   11   38 1
    22   11   39 1
    23   12   13 1
    24   12   40 1
    25   12   41 1
    26   13   14 1
    27   13   16 1
    28   14   15 1
    29   14   42 1
    30   14   43 1
    31   15   44 1
    32   15   45 1
    33   16   17 1
    34   16   46 1
    35   16   47 1
    36   17   18 1
    37   17   48 1
    38   17   49 1
    39   18   23 ar
    40   18   19 ar
    41   19   20 ar
    42   19   50 1
    43   20   21 ar
    44   20   51 1
    45   21   22 ar
    46   21   24 1
    47   22   23 ar
    48   22   52 1
    49   23   53 1
    50   24   29 ar
    51   24   25 ar
    52   25   26 ar
    53   25   54 1
    54   26   27 ar
    55   26   55 1
    56   27   28 ar
    57   27   56 1
    58   28   29 ar
    59   28   30 1
    60   29   59 1
    61   30   57 1
    62   30   58 1
@<TRIPOS>MOLECULE
CHEMBL428069
   53    55     0     0     0
SMALL
USER_CHARGES

@<TRIPOS>ATOM
      1 C1         -0.0178    1.4648    0.0101 C.3       1 <0>         0.0057
      2 N1          0.0021   -0.0041    0.0020 N.3       1 <0>        -0.5227
      3 C2          0.7062   -0.5275    1.1802 C.3       1 <0>         0.0868
      4 C3         -0.0734   -0.1864    2.4240 C.ar      1 <0>        -0.0324
      5 C4          0.3019    0.8891    3.2016 C.ar      1 <0>        -0.1060
      6 C5         -0.4135    1.2038    4.3448 C.ar      1 <0>        -0.0090
      7 C6         -1.5099    0.4421    4.7145 C.ar      1 <0>        -0.1027
      8 C7         -1.8954   -0.6352    3.9453 C.ar      1 <0>        -0.0564
      9 C8         -1.1809   -0.9550    2.7884 C.ar      1 <0>        -0.0021
     10 C9         -1.5794   -2.0693    1.9822 C.1       1 <0>         0.2546
     11 N2         -1.8955   -2.9533    1.3426 N.1       1 <0>        -0.4021
     12 Cl1         0.0660    2.5584    5.3189 Cl        1 <0>        -0.0469
     13 C10         0.5996   -0.5156   -1.2387 C.3       1 <0>         0.0749
     14 C11         2.0257    0.0239   -1.3806 C.3       1 <0>        -0.1877
     15 C12         2.6134   -0.4478   -2.7124 C.3       1 <0>         0.0001
     16 N3          1.7879    0.0499   -3.8193 N.4       1 <0>        -0.3838
     17 C13         0.4384   -0.5204   -3.7299 C.3       1 <0>        -0.0100
     18 C14        -0.2330   -0.0515   -2.4373 C.3       1 <0>        -0.1409
     19 C15         2.3988   -0.3394   -5.0973 C.3       1 <0>        -0.0060
     20 C16         1.6094    0.2833   -6.2506 C.3       1 <0>        -0.0994
     21 C17         2.2361   -0.1161   -7.5616 C.ar      1 <0>        -0.1087
     22 C18         3.2307    0.6656   -8.1188 C.ar      1 <0>        -0.1103
     23 C19         3.8055    0.2992   -9.3214 C.ar      1 <0>        -0.1138
     24 C20         3.3860   -0.8491   -9.9666 C.ar      1 <0>        -0.1040
     25 C21         2.3920   -1.6313   -9.4089 C.ar      1 <0>        -0.1138
     26 C22         1.8202   -1.2672   -8.2042 C.ar      1 <0>        -0.1102
     27 H1          1.0047    1.8421    0.0024 H         1 <0>         0.0362
     28 H2         -0.5450    1.8259   -0.8730 H         1 <0>         0.0755
     29 H3         -0.5280    1.8163    0.9069 H         1 <0>         0.0830
     30 H4          0.8004   -1.6101    1.0960 H         1 <0>         0.0920
     31 H5          1.6983   -0.0800    1.2392 H         1 <0>         0.0613
     32 H6          1.1558    1.4868    2.9186 H         1 <0>         0.1415
     33 H7         -2.0635    0.6924    5.6074 H         1 <0>         0.1496
     34 H8         -2.7501   -1.2286    4.2348 H         1 <0>         0.1474
     35 H9          0.6219   -1.6050   -1.2103 H         1 <0>         0.1011
     36 H10         2.0068    1.1135   -1.3567 H         1 <0>         0.0942
     37 H11         2.6390   -0.3482   -0.5600 H         1 <0>         0.1130
     38 H12         3.6289   -0.0656   -2.8166 H         1 <0>         0.1312
     39 H13         2.6322   -1.5374   -2.7352 H         1 <0>         0.1299
     40 H14        -0.1518   -0.1918   -4.5853 H         1 <0>         0.1355
     41 H15         0.5035   -1.6085   -3.7310 H         1 <0>         0.1310
     42 H16        -1.2341   -0.4775   -2.3719 H         1 <0>         0.1211
     43 H17        -0.2988    1.0365   -2.4353 H         1 <0>         0.0922
     44 H18         3.4294    0.0139   -5.1300 H         1 <0>         0.1323
     45 H19         2.3838   -1.4253   -5.1913 H         1 <0>         0.1314
     46 H20         0.5788   -0.0700   -6.2179 H         1 <0>         0.0950
     47 H21         1.6244    1.3691   -6.1566 H         1 <0>         0.0945
     48 H22         3.5585    1.5628   -7.6148 H         1 <0>         0.1238
     49 H23         4.5821    0.9103   -9.7571 H         1 <0>         0.1295
     50 H24         3.8346   -1.1350  -10.9065 H         1 <0>         0.1299
     51 H25         2.0640   -2.5283   -9.9131 H         1 <0>         0.1296
     52 H26         1.0462   -1.8803   -7.7666 H         1 <0>         0.1236
     53 H27         1.7308    1.0560   -3.7689 H         1 <0>         0.4217
@<TRIPOS>BOND
     1    1    2 1
     2    1   27 1
     3    1   28 1
     4    1   29 1
     5    2    3 1
     6    2   13 1
     7    3    4 1
     8    3   30 1
     9    3   31 1
    10    4    9 ar
    11    4    5 ar
    12    5    6 ar
    13    5   32 1
    14    6    7 ar
    15    6   12 1
    16    7    8 ar
    17    7   33 1
    18    8    9 ar
    19    8   34 1
    20    9   10 1
    21   10   11 3
    22   13   18 1
    23   13   14 1
    24   13   35 1
    25   14   15 1
    26   14   36 1
    27   14   37 1
    28   15   16 1
    29   15   38 1
    30   15   39 1
    31   16   17 1
    32   16   19 1
    33   16   53 1
    34   17   18 1
    35   17   40 1
    36   17   41 1
    37   18   42 1
    38   18   43 1
    39   19   20 1
    40   19   44 1
    41   19   45 1
    42   20   21 1
    43   20   46 1
    44   20   47 1
    45   21   26 ar
    46   21   22 ar
    47   22   23 ar
    48   22   48 1
    49   23   24 ar
    50   23   49 1
    51   24   25 ar
    52   24   50 1
    53   25   26 ar
    54   25   51 1
    55   26   52 1
@<TRIPOS>MOLECULE
CHEMBL364188
   45    46     0     0     0
SMALL
USER_CHARGES

@<TRIPOS>ATOM
      1 C1         -0.0187    1.5258    0.0104 C.3       1 <0>        -0.1568
      2 C2          0.0021   -0.0041    0.0020 C.3       1 <0>        -0.0832
      3 C3         -1.4117   -0.5257    0.0127 C.ar      1 <0>        -0.1031
      4 C4         -2.0112   -0.8625    1.2093 C.ar      1 <0>        -0.0551
      5 C5         -3.3183   -1.3444    1.2206 C.ar      1 <0>        -0.0385
      6 C6         -4.0157   -1.4838    0.0160 C.ar      1 <0>         0.1675
      7 C7         -3.4012   -1.1417   -1.1779 C.ar      1 <0>        -0.1918
      8 C8         -2.1060   -0.6597   -1.1767 C.ar      1 <0>        -0.1110
      9 C9         -1.4445   -0.2838   -2.4775 C.3       1 <0>         0.0381
     10 N1         -0.5612   -1.3747   -2.9109 N.4       1 <0>        -0.3875
     11 C10        -1.3663   -2.5654   -3.2142 C.3       1 <0>        -0.0514
     12 C11         0.1737   -0.9611   -4.1138 C.3       1 <0>        -0.0490
     13 O1         -5.2901   -1.9532    0.0167 O.3       1 <0>        -0.2622
     14 C12        -5.9395   -2.0688   -1.2510 C.3       1 <0>         0.0162
     15 C13        -3.9669   -1.7082    2.5029 C.ar      1 <0>         0.1987
     16 C14        -3.2655   -1.5606    3.6967 C.ar      1 <0>        -0.2192
     17 C15        -3.8810   -1.9035    4.8899 C.ar      1 <0>        -0.0311
     18 C16        -5.1794   -2.3836    4.8522 C.ar      1 <0>        -0.2300
     19 C17        -5.8246   -2.5072    3.6257 C.ar      1 <0>         0.4088
     20 N2         -5.2131   -2.1665    2.5028 N.ar      1 <0>        -0.5120
     21 N3         -7.1278   -2.9883    3.5800 N.pl3     1 <0>        -0.8489
     22 H1          1.0039    1.9031    0.0027 H         1 <0>         0.0688
     23 H2         -0.5459    1.8868   -0.8726 H         1 <0>         0.0550
     24 H3         -0.5289    1.8773    0.9072 H         1 <0>         0.0694
     25 H4          0.5123   -0.3556   -0.8948 H         1 <0>         0.0497
     26 H5          0.5293   -0.3651    0.8851 H         1 <0>         0.0905
     27 H6         -1.4675   -0.7530    2.1360 H         1 <0>         0.1467
     28 H7         -3.9363   -1.2483   -2.1100 H         1 <0>         0.1392
     29 H8         -2.2075   -0.1108   -3.2365 H         1 <0>         0.1361
     30 H9         -0.8584    0.6246   -2.3379 H         1 <0>         0.1398
     31 H10        -1.9116   -2.8723   -2.3217 H         1 <0>         0.1229
     32 H11        -2.0737   -2.3327   -4.0101 H         1 <0>         0.1219
     33 H12        -0.7109   -3.3748   -3.5358 H         1 <0>         0.1248
     34 H13         0.7710   -0.0776   -3.8887 H         1 <0>         0.1240
     35 H14         0.8291   -1.7705   -4.4353 H         1 <0>         0.1258
     36 H15        -0.5337   -0.7284   -4.9097 H         1 <0>         0.1235
     37 H16        -6.9490   -2.4544   -1.1083 H         1 <0>         0.1077
     38 H17        -5.9887   -1.0884   -1.7248 H         1 <0>         0.0562
     39 H18        -5.3762   -2.7518   -1.8869 H         1 <0>         0.0532
     40 H19        -2.2535   -1.1836    3.6926 H         1 <0>         0.1324
     41 H20        -3.3589   -1.7989    5.8295 H         1 <0>         0.1390
     42 H21        -5.6857   -2.6596    5.7654 H         1 <0>         0.1347
     43 H22        -7.5825   -3.2358    4.4003 H         1 <0>         0.4110
     44 H23        -7.5827   -3.0765    2.7278 H         1 <0>         0.4050
     45 H24         0.0936   -1.5901   -2.1741 H         1 <0>         0.4241
@<TRIPOS>BOND
     1    1    2 1
     2    1   22 1
     3    1   23 1
     4    1   24 1
     5    2    3 1
     6    2   25 1
     7    2   26 1
     8    3    8 ar
     9    3    4 ar
    10    4    5 ar
    11    4   27 1
    12    5    6 ar
    13    5   15 1
    14    6    7 ar
    15    6   13 1
    16    7    8 ar
    17    7   28 1
    18    8    9 1
    19    9   10 1
    20    9   29 1
    21    9   30 1
    22   10   11 1
    23   10   12 1
    24   10   45 1
    25   11   31 1
    26   11   32 1
    27   11   33 1
    28   12   34 1
    29   12   35 1
    30   12   36 1
    31   13   14 1
    32   14   37 1
    33   14   38 1
    34   14   39 1
    35   15   20 ar
    36   15   16 ar
    37   16   17 ar
    38   16   40 1
    39   17   18 ar
    40   17   41 1
    41   18   19 ar
    42   18   42 1
    43   19   20 ar
    44   19   21 1
    45   21   43 1
    46   21   44 1
@<TRIPOS>MOLECULE
CHEMBL8272
   24    25     0     0     0
SMALL
USER_CHARGES

@<TRIPOS>ATOM
      1 C1          0.0180   -1.1779   -0.0044 C.1       1 <0>        -0.0886
      2 C2          0.0021   -0.0041    0.0020 C.1       1 <0>        -0.2709
      3 C3         -0.0179    1.4678    0.0101 C.3       1 <0>         0.2561
      4 C4         -0.7951    1.9646   -1.2076 C.3       1 <0>        -0.1063
      5 C5         -0.0003    1.6937   -2.4580 C.ar      1 <0>        -0.0234
      6 C6         -0.6225    1.3866   -3.6473 C.ar      1 <0>        -0.1107
      7 C7          0.1365    1.1427   -4.7793 C.ar      1 <0>        -0.0477
      8 C8          1.5175    1.2059   -4.7236 C.ar      1 <0>        -0.1186
      9 C9          2.1520    1.5132   -3.5358 C.ar      1 <0>        -0.0499
     10 C10         1.3933    1.7594   -2.3964 C.ar      1 <0>        -0.1523
     11 C11         2.0311    2.0955   -1.1034 C.cat     1 <0>         0.5957
     12 N1          1.3541    1.9647   -0.0003 N.pl3     1 <0>        -0.6163
     13 N2          3.3336    2.5436   -1.0685 N.pl3     1 <0>        -0.7877
     14 H1          0.0322   -2.2278   -0.0102 H         1 <0>         0.2307
     15 H2         -0.5160    1.8131    0.9160 H         1 <0>         0.1539
     16 H3         -1.7511    1.4443   -1.2652 H         1 <0>         0.1289
     17 H4         -0.9704    3.0364   -1.1139 H         1 <0>         0.1175
     18 H5         -1.7002    1.3364   -3.6971 H         1 <0>         0.1488
     19 H6         -0.3525    0.9019   -5.7117 H         1 <0>         0.1475
     20 H7          2.1013    1.0140   -5.6117 H         1 <0>         0.1485
     21 H8          3.2300    1.5627   -3.4922 H         1 <0>         0.1398
     22 H9          3.8357    2.6397   -1.8929 H         1 <0>         0.4421
     23 H10         3.7485    2.7630   -0.2196 H         1 <0>         0.4302
     24 H11         1.7737    2.2050    0.8405 H         1 <0>         0.4326
@<TRIPOS>BOND
     1    1    2 3
     2    1   14 1
     3    2    3 1
     4    3   12 1
     5    3    4 1
     6    3   15 1
     7    4    5 1
     8    4   16 1
     9    4   17 1
    10    5   10 ar
    11    5    6 ar
    12    6    7 ar
    13    6   18 1
    14    7    8 ar
    15    7   19 1
    16    8    9 ar
    17    8   20 1
    18    9   10 ar
    19    9   21 1
    20   10   11 1
    21   11   12 2
    22   11   13 1
    23   12   24 1
    24   13   22 1
    25   13   23 1
@<TRIPOS>MOLECULE
CHEMBL8272__1
   24    25     0     0     0
SMALL
USER_CHARGES

@<TRIPOS>ATOM
      1 C1          0.0180   -1.1779   -0.0044 C.1       1 <0>        -0.0719
      2 C2          0.0021   -0.0041    0.0020 C.1       1 <0>        -0.2720
      3 C3         -0.0179    1.4678    0.0101 C.3       1 <0>         0.2593
      4 C4         -0.7716    1.9514    1.2477 C.3       1 <0>        -0.1051
      5 C5         -0.6041    3.4415    1.3898 C.ar      1 <0>        -0.0282
      6 C6         -1.6091    4.2270    1.9084 C.ar      1 <0>        -0.1086
      7 C7         -1.4241    5.5941    2.0261 C.ar      1 <0>        -0.0473
      8 C8         -0.2347    6.1769    1.6261 C.ar      1 <0>        -0.1171
      9 C9          0.7801    5.3983    1.1045 C.ar      1 <0>        -0.0485
     10 C10         0.5985    4.0246    0.9851 C.ar      1 <0>        -0.1531
     11 C11         1.6603    3.1517    0.4349 C.cat     1 <0>         0.5931
     12 N1          1.3541    1.9647   -0.0003 N.pl3     1 <0>        -0.6159
     13 N2          2.9642    3.5940    0.3839 N.pl3     1 <0>        -0.7880
     14 H1          0.0322   -2.2278   -0.0102 H         1 <0>         0.2353
     15 H2         -0.5332    1.8228   -0.8824 H         1 <0>         0.1354
     16 H3         -1.8303    1.7133    1.1442 H         1 <0>         0.1302
     17 H4         -0.3730    1.4552    2.1326 H         1 <0>         0.1104
     18 H5         -2.5394    3.7777    2.2231 H         1 <0>         0.1500
     19 H6         -2.2129    6.2093    2.4331 H         1 <0>         0.1483
     20 H7         -0.0994    7.2442    1.7215 H         1 <0>         0.1492
     21 H8          1.7086    5.8531    0.7923 H         1 <0>         0.1411
     22 H9          3.1890    4.4798    0.7090 H         1 <0>         0.4425
     23 H10         3.6574    3.0195    0.0228 H         1 <0>         0.4300
     24 H11         2.0590    1.3926   -0.3418 H         1 <0>         0.4309
@<TRIPOS>BOND
     1    1    2 3
     2    1   14 1
     3    2    3 1
     4    3   12 1
     5    3    4 1
     6    3   15 1
     7    4    5 1
     8    4   16 1
     9    4   17 1
    10    5   10 ar
    11    5    6 ar
    12    6    7 ar
    13    6   18 1
    14    7    8 ar
    15    7   19 1
    16    8    9 ar
    17    8   20 1
    18    9   10 ar
    19    9   21 1
    20   10   11 1
    21   11   12 2
    22   11   13 1
    23   12   24 1
    24   13   22 1
    25   13   23 1
@<TRIPOS>MOLECULE
CHEMBL484101
   26    27     0     0     0
SMALL
USER_CHARGES

@<TRIPOS>ATOM
      1 C1         -0.0167    1.3781    0.0096 C.ar      1 <0>        -0.1256
      2 C2          1.1709    2.0855    0.0021 C.ar      1 <0>        -0.1187
      3 C3          2.3773    1.4107   -0.0130 C.ar      1 <0>        -0.1182
      4 C4          2.3960    0.0285   -0.0201 C.ar      1 <0>        -0.0819
      5 C5          1.2084   -0.6789   -0.0117 C.ar      1 <0>        -0.1162
      6 C6          0.0021   -0.0041    0.0020 C.ar      1 <0>        -0.1186
      7 C7          3.7112   -0.7071   -0.0376 C.3       1 <0>        -0.0705
      8 C8          4.1714   -0.9633    1.3989 C.3       1 <0>        -0.0379
      9 C9          5.4865   -1.6989    1.3815 C.2       1 <0>         0.1113
     10 C10         6.5712   -1.2242    2.0394 C.2       1 <0>        -0.2700
     11 S1          7.7729   -2.4879    1.6566 S.3       1 <0>         0.0717
     12 C11         6.7846   -3.4718    0.7145 C.2       1 <0>         0.3225
     13 N1          5.6310   -2.8385    0.7282 N.2       1 <0>        -0.5875
     14 N2          7.1060   -4.6627    0.0823 N.pl3     1 <0>        -0.8043
     15 H1         -0.9591    1.9053    0.0259 H         1 <0>         0.1205
     16 H2          1.1563    3.1654    0.0076 H         1 <0>         0.1212
     17 H3          3.3051    1.9634   -0.0196 H         1 <0>         0.1210
     18 H4          1.2231   -1.7588   -0.0176 H         1 <0>         0.1213
     19 H5         -0.9258   -0.5567    0.0082 H         1 <0>         0.1211
     20 H6          3.5884   -1.6586   -0.5549 H         1 <0>         0.0810
     21 H7          4.4573   -0.1052   -0.5563 H         1 <0>         0.0698
     22 H8          4.2941   -0.0118    1.9163 H         1 <0>         0.0814
     23 H9          3.4252   -1.5652    1.9176 H         1 <0>         0.0804
     24 H10         6.6794   -0.3279    2.6321 H         1 <0>         0.1924
     25 H11         8.0026   -5.0252    0.1576 H         1 <0>         0.4194
     26 H12         6.4344   -5.1336   -0.4355 H         1 <0>         0.4145
@<TRIPOS>BOND
     1    1    6 ar
     2    1    2 ar
     3    1   15 1
     4    2    3 ar
     5    2   16 1
     6    3    4 ar
     7    3   17 1
     8    4    5 ar
     9    4    7 1
    10    5    6 ar
    11    5   18 1
    12    6   19 1
    13    7    8 1
    14    7   20 1
    15    7   21 1
    16    8    9 1
    17    8   22 1
    18    8   23 1
    19    9   13 1
    20    9   10 2
    21   10   11 1
    22   10   24 1
    23   11   12 1
    24   12   13 2
    25   12   14 1
    26   14   25 1
    27   14   26 1
@<TRIPOS>MOLECULE
CHEMBL484101__1
   27    28     0     0     0
SMALL
USER_CHARGES

@<TRIPOS>ATOM
      1 C1         -0.0167    1.3781    0.0096 C.ar      1 <0>        -0.1119
      2 C2          1.1709    2.0855    0.0021 C.ar      1 <0>        -0.1156
      3 C3          2.3773    1.4107   -0.0130 C.ar      1 <0>        -0.1162
      4 C4          2.3960    0.0285   -0.0201 C.ar      1 <0>        -0.1020
      5 C5          1.2084   -0.6789   -0.0117 C.ar      1 <0>        -0.1123
      6 C6          0.0021   -0.0041    0.0020 C.ar      1 <0>        -0.1143
      7 C7          3.7112   -0.7071   -0.0376 C.3       1 <0>        -0.0743
      8 C8          4.1714   -0.9633    1.3989 C.3       1 <0>        -0.0664
      9 C9          5.4865   -1.6989    1.3815 C.2       1 <0>         0.0831
     10 C10         5.5410   -3.0476    1.2678 C.2       1 <0>        -0.1918
     11 S1          7.3059   -3.3144    1.3054 S.3       1 <0>         0.3492
     12 C11         7.7815   -1.7074    1.4594 C.cat     1 <0>         0.3130
     13 N1          6.6378   -1.0564    1.4708 N.pl3     1 <0>        -0.5440
     14 N2          9.0659   -1.1938    1.5474 N.pl3     1 <0>        -0.7549
     15 H1         -0.9591    1.9053    0.0259 H         1 <0>         0.1270
     16 H2          1.1563    3.1654    0.0076 H         1 <0>         0.1259
     17 H3          3.3051    1.9634   -0.0196 H         1 <0>         0.1189
     18 H4          1.2231   -1.7588   -0.0176 H         1 <0>         0.1243
     19 H5         -0.9258   -0.5567    0.0082 H         1 <0>         0.1274
     20 H6          3.5884   -1.6586   -0.5549 H         1 <0>         0.0870
     21 H7          4.4573   -0.1052   -0.5563 H         1 <0>         0.0750
     22 H8          4.2941   -0.0118    1.9163 H         1 <0>         0.0955
     23 H9          3.4252   -1.5652    1.9176 H         1 <0>         0.1199
     24 H10         4.7379   -3.7642    1.1791 H         1 <0>         0.2382
     25 H11         9.8298   -1.7910    1.5221 H         1 <0>         0.4504
     26 H12         9.2008   -0.2372    1.6344 H         1 <0>         0.4335
     27 H13         6.6398   -0.0896    1.5496 H         1 <0>         0.4356
@<TRIPOS>BOND
     1    1    6 ar
     2    1    2 ar
     3    1   15 1
     4    2    3 ar
     5    2   16 1
     6    3    4 ar
     7    3   17 1
     8    4    5 ar
     9    4    7 1
    10    5    6 ar
    11    5   18 1
    12    6   19 1
    13    7    8 1
    14    7   20 1
    15    7   21 1
    16    8    9 1
    17    8   22 1
    18    8   23 1
    19    9   13 1
    20    9   10 2
    21   10   11 1
    22   10   24 1
    23   11   12 1
    24   12   13 2
    25   12   14 1
    26   13   27 1
    27   14   25 1
    28   14   26 1
@<TRIPOS>MOLECULE
CHEMBL450172
   16    16     0     0     0
SMALL
USER_CHARGES

@<TRIPOS>ATOM
      1 C1         -0.0184    1.5028    0.0103 C.3       1 <0>        -0.0798
      2 C2          0.0021   -0.0041    0.0020 C.2       1 <0>         0.1013
      3 C3          0.0059   -0.7050   -1.1571 C.2       1 <0>        -0.2409
      4 S1          0.0324   -2.3782   -0.5350 S.3       1 <0>         0.0706
      5 C4          0.0358   -2.0159    1.1085 C.2       1 <0>         0.3183
      6 N1          0.0227   -0.7000    1.1252 N.2       1 <0>        -0.5890
      7 N2          0.0535   -2.8908    2.1834 N.pl3     1 <0>        -0.8049
      8 C5         -0.0088   -0.2089   -2.5800 C.3       1 <0>        -0.0534
      9 H1          1.0042    1.8801    0.0026 H         1 <0>         0.0746
     10 H2         -0.5455    1.8639   -0.8728 H         1 <0>         0.0752
     11 H3         -0.5286    1.8543    0.9071 H         1 <0>         0.0726
     12 H4          0.0660   -3.8484    2.0292 H         1 <0>         0.4190
     13 H5          0.0534   -2.5455    3.0899 H         1 <0>         0.4141
     14 H6          1.0152   -0.0747   -2.9286 H         1 <0>         0.0727
     15 H7         -0.5157   -0.9370   -3.2134 H         1 <0>         0.0695
     16 H8         -0.5365    0.7436   -2.6273 H         1 <0>         0.0802
@<TRIPOS>BOND
     1    1    2 1
     2    1    9 1
     3    1   10 1
     4    1   11 1
     5    2    6 1
     6    2    3 2
     7    3    4 1
     8    3    8 1
     9    4    5 1
    10    5    6 2
    11    5    7 1
    12    7   12 1
    13    7   13 1
    14    8   14 1
    15    8   15 1
    16    8   16 1
@<TRIPOS>MOLECULE
CHEMBL450172__1
   17    17     0     0     0
SMALL
USER_CHARGES

@<TRIPOS>ATOM
      1 C1         -0.0184    1.5028    0.0103 C.3       1 <0>        -0.1073
      2 C2          0.0021   -0.0041    0.0020 C.2       1 <0>         0.0662
      3 C3          0.0059   -0.7050   -1.1571 C.2       1 <0>        -0.1587
      4 S1          0.0324   -2.3782   -0.5350 S.3       1 <0>         0.3353
      5 C4          0.0358   -2.0159    1.1085 C.cat     1 <0>         0.3132
      6 N1          0.0227   -0.7000    1.1252 N.pl3     1 <0>        -0.5404
      7 N2          0.0535   -2.8908    2.1834 N.pl3     1 <0>        -0.7565
      8 C5         -0.0088   -0.2089   -2.5800 C.3       1 <0>        -0.0776
      9 H1          1.0042    1.8801    0.0026 H         1 <0>         0.1045
     10 H2         -0.5455    1.8639   -0.8728 H         1 <0>         0.1113
     11 H3         -0.5286    1.8543    0.9071 H         1 <0>         0.0889
     12 H4          0.0664   -3.8484    2.0292 H         1 <0>         0.4499
     13 H5          0.0530   -2.5455    3.0899 H         1 <0>         0.4331
     14 H6          1.0152   -0.0747   -2.9286 H         1 <0>         0.1025
     15 H7         -0.5157   -0.9370   -3.2134 H         1 <0>         0.0958
     16 H8         -0.5365    0.7436   -2.6273 H         1 <0>         0.1043
     17 H9          0.0247   -0.2335    1.9756 H         1 <0>         0.4354
@<TRIPOS>BOND
     1    1    2 1
     2    1    9 1
     3    1   10 1
     4    1   11 1
     5    2    6 1
     6    2    3 2
     7    3    4 1
     8    3    8 1
     9    4    5 1
    10    5    6 2
    11    5    7 1
    12    6   17 1
    13    7   12 1
    14    7   13 1
    15    8   14 1
    16    8   15 1
    17    8   16 1
@<TRIPOS>MOLECULE
CHEMBL290875
   56    59     0     0     0
SMALL
USER_CHARGES

@<TRIPOS>ATOM
      1 C1         -0.0178    1.4648    0.0101 C.3       1 <0>        -0.0465
      2 N1          0.0021   -0.0041    0.0020 N.4       1 <0>        -0.3887
      3 C2         -1.3761   -0.5122    0.0107 C.3       1 <0>        -0.0025
      4 C3         -1.3560   -2.0421   -0.0167 C.3       1 <0>         0.0257
      5 N2         -0.6244   -2.5407    1.1564 N.3       1 <0>        -0.5342
      6 C4          0.7499   -2.0201    1.1745 C.3       1 <0>         0.0185
      7 C5          0.7125   -0.4904    1.1921 C.3       1 <0>        -0.0012
      8 C6         -0.6316   -4.0091    1.1963 C.3       1 <0>         0.0545
      9 C7         -0.0856   -4.4853    2.5439 C.3       1 <0>         0.0550
     10 O1         -0.9701   -4.0744    3.5883 O.3       1 <0>        -0.2877
     11 C8         -0.6287   -4.4197    4.8570 C.ar      1 <0>         0.1837
     12 C9          0.5380   -5.1346    5.0873 C.ar      1 <0>        -0.2092
     13 C10         0.8885   -5.4866    6.3732 C.ar      1 <0>        -0.0495
     14 C11         0.0689   -5.1229    7.4397 C.ar      1 <0>        -0.1384
     15 C12        -1.1050   -4.4034    7.2067 C.ar      1 <0>        -0.0052
     16 C13        -1.4478   -4.0496    5.9187 C.ar      1 <0>        -0.1196
     17 C14        -2.7490   -3.2759    5.9288 C.3       1 <0>        -0.0736
     18 C15        -3.3811   -3.5670    7.3065 C.3       1 <0>        -0.1236
     19 C16        -2.1519   -3.8952    8.1745 C.3       1 <0>        -0.0955
     20 C17         0.4434   -5.5006    8.8237 C.ar      1 <0>         0.2414
     21 C18         0.2420   -4.5970    9.8636 C.ar      1 <0>        -0.1656
     22 C19         0.5955   -4.9598   11.1534 C.ar      1 <0>         0.0419
     23 C20         1.1396   -6.2158   11.3633 C.ar      1 <0>        -0.2001
     24 C21         1.3148   -7.0718   10.2804 C.ar      1 <0>         0.4563
     25 N3          0.9627   -6.6994    9.0605 N.ar      1 <0>        -0.5067
     26 N4          1.8608   -8.3339   10.4832 N.pl3     1 <0>        -0.8212
     27 H1          1.0047    1.8421    0.0024 H         1 <0>         0.1253
     28 H2         -0.5450    1.8259   -0.8730 H         1 <0>         0.1267
     29 H3         -0.5280    1.8163    0.9069 H         1 <0>         0.1235
     30 H4         -1.8832   -0.1716    0.9134 H         1 <0>         0.1384
     31 H5         -1.9060   -0.1400   -0.8661 H         1 <0>         0.1388
     32 H6         -2.3783   -2.4196    0.0047 H         1 <0>         0.1264
     33 H7         -0.8610   -2.3831   -0.9260 H         1 <0>         0.0635
     34 H8          1.2641   -2.3816    2.0650 H         1 <0>         0.1190
     35 H9          1.2796   -2.3607    0.2848 H         1 <0>         0.0638
     36 H10         1.7310   -0.1020    1.1912 H         1 <0>         0.1364
     37 H11         0.1947   -0.1499    2.0888 H         1 <0>         0.1373
     38 H12        -1.6519   -4.3710    1.0694 H         1 <0>         0.1050
     39 H13        -0.0057   -4.3975    0.3929 H         1 <0>         0.0747
     40 H14        -0.0076   -5.5725    2.5406 H         1 <0>         0.0810
     41 H15         0.9001   -4.0509    2.7105 H         1 <0>         0.0686
     42 H16         1.1714   -5.4157    4.2590 H         1 <0>         0.1429
     43 H17         1.7962   -6.0434    6.5536 H         1 <0>         0.1325
     44 H18        -2.5554   -2.2088    5.8194 H         1 <0>         0.0864
     45 H19        -3.4035   -3.6262    5.1307 H         1 <0>         0.0842
     46 H20        -3.9062   -2.6901    7.6852 H         1 <0>         0.0904
     47 H21        -4.0490   -4.4268    7.2527 H         1 <0>         0.0797
     48 H22        -2.3921   -4.6634    8.9096 H         1 <0>         0.0869
     49 H23        -1.8002   -2.9914    8.6720 H         1 <0>         0.0972
     50 H24        -0.1844   -3.6243    9.6672 H         1 <0>         0.1780
     51 H25         0.4500   -4.2773   11.9777 H         1 <0>         0.1786
     52 H26         1.4254   -6.5275   12.3570 H         1 <0>         0.1823
     53 H27         2.1174   -8.6137   11.3758 H         1 <0>         0.4426
     54 H28         1.9852   -8.9349    9.7320 H         1 <0>         0.4210
     55 H29         0.4748   -0.3293   -0.8280 H         1 <0>         0.4235
     56 H30         1.0903   -7.3149    8.3217 H         1 <0>         0.4374
@<TRIPOS>BOND
     1    1    2 1
     2    1   27 1
     3    1   28 1
     4    1   29 1
     5    2    7 1
     6    2    3 1
     7    2   55 1
     8    3    4 1
     9    3   30 1
    10    3   31 1
    11    4    5 1
    12    4   32 1
    13    4   33 1
    14    5    6 1
    15    5    8 1
    16    6    7 1
    17    6   34 1
    18    6   35 1
    19    7   36 1
    20    7   37 1
    21    8    9 1
    22    8   38 1
    23    8   39 1
    24    9   10 1
    25    9   40 1
    26    9   41 1
    27   10   11 1
    28   11   16 ar
    29   11   12 ar
    30   12   13 ar
    31   12   42 1
    32   13   14 ar
    33   13   43 1
    34   14   15 ar
    35   14   20 1
    36   15   19 1
    37   15   16 ar
    38   16   17 1
    39   17   18 1
    40   17   44 1
    41   17   45 1
    42   18   19 1
    43   18   46 1
    44   18   47 1
    45   19   48 1
    46   19   49 1
    47   20   25 ar
    48   20   21 ar
    49   21   22 ar
    50   21   50 1
    51   22   23 ar
    52   22   51 1
    53   23   24 ar
    54   23   52 1
    55   24   25 ar
    56   24   26 1
    57   25   56 1
    58   26   53 1
    59   26   54 1
@<TRIPOS>MOLECULE
CHEMBL290875__1
   55    58     0     0     0
SMALL
USER_CHARGES

@<TRIPOS>ATOM
      1 C1         -0.0178    1.4648    0.0101 C.3       1 <0>        -0.0457
      2 N1          0.0021   -0.0041    0.0020 N.4       1 <0>        -0.3882
      3 C2         -1.3761   -0.5122    0.0107 C.3       1 <0>        -0.0023
      4 C3         -1.3560   -2.0421   -0.0167 C.3       1 <0>         0.0262
      5 N2         -0.6244   -2.5407    1.1564 N.3       1 <0>        -0.5321
      6 C4          0.7499   -2.0201    1.1745 C.3       1 <0>         0.0193
      7 C5          0.7125   -0.4904    1.1921 C.3       1 <0>        -0.0016
      8 C6         -0.6316   -4.0091    1.1963 C.3       1 <0>         0.0570
      9 C7         -0.0856   -4.4853    2.5439 C.3       1 <0>         0.0580
     10 O1         -0.9701   -4.0744    3.5883 O.3       1 <0>        -0.2982
     11 C8         -0.6287   -4.4197    4.8570 C.ar      1 <0>         0.1493
     12 C9          0.5380   -5.1346    5.0873 C.ar      1 <0>        -0.2173
     13 C10         0.8885   -5.4866    6.3732 C.ar      1 <0>        -0.0555
     14 C11         0.0689   -5.1229    7.4397 C.ar      1 <0>        -0.0734
     15 C12        -1.1050   -4.4034    7.2067 C.ar      1 <0>        -0.0064
     16 C13        -1.4478   -4.0496    5.9187 C.ar      1 <0>        -0.1372
     17 C14        -2.7490   -3.2759    5.9288 C.3       1 <0>        -0.0650
     18 C15        -3.3811   -3.5670    7.3065 C.3       1 <0>        -0.1284
     19 C16        -2.1519   -3.8952    8.1745 C.3       1 <0>        -0.0725
     20 C17         0.4434   -5.5006    8.8237 C.ar      1 <0>         0.2195
     21 C18         1.6178   -6.2134    9.0501 C.ar      1 <0>        -0.2280
     22 C19         1.9587   -6.5615   10.3474 C.ar      1 <0>        -0.0281
     23 C20         1.1140   -6.1857   11.3784 C.ar      1 <0>        -0.2421
     24 C21        -0.0450   -5.4742   11.0844 C.ar      1 <0>         0.4103
     25 N3         -0.3415   -5.1512    9.8360 N.ar      1 <0>        -0.5371
     26 N4         -0.8979   -5.0939   12.1140 N.pl3     1 <0>        -0.8514
     27 H1          1.0047    1.8421    0.0024 H         1 <0>         0.1241
     28 H2         -0.5450    1.8259   -0.8730 H         1 <0>         0.1245
     29 H3         -0.5280    1.8163    0.9069 H         1 <0>         0.1233
     30 H4         -1.8832   -0.1716    0.9134 H         1 <0>         0.1385
     31 H5         -1.9060   -0.1400   -0.8661 H         1 <0>         0.1362
     32 H6         -2.3783   -2.4196    0.0047 H         1 <0>         0.1250
     33 H7         -0.8610   -2.3831   -0.9260 H         1 <0>         0.0605
     34 H8          1.2641   -2.3816    2.0650 H         1 <0>         0.1226
     35 H9          1.2796   -2.3607    0.2848 H         1 <0>         0.0614
     36 H10         1.7310   -0.1020    1.1912 H         1 <0>         0.1356
     37 H11         0.1947   -0.1499    2.0888 H         1 <0>         0.1384
     38 H12        -1.6519   -4.3710    1.0694 H         1 <0>         0.1021
     39 H13        -0.0057   -4.3975    0.3929 H         1 <0>         0.0693
     40 H14        -0.0076   -5.5725    2.5406 H         1 <0>         0.0762
     41 H15         0.9001   -4.0509    2.7105 H         1 <0>         0.0629
     42 H16         1.1714   -5.4157    4.2590 H         1 <0>         0.1301
     43 H17         1.7962   -6.0434    6.5536 H         1 <0>         0.1343
     44 H18        -2.5554   -2.2088    5.8194 H         1 <0>         0.0741
     45 H19        -3.4035   -3.6262    5.1307 H         1 <0>         0.0727
     46 H20        -3.9062   -2.6901    7.6852 H         1 <0>         0.0776
     47 H21        -4.0490   -4.4268    7.2527 H         1 <0>         0.0715
     48 H22        -2.3921   -4.6634    8.9096 H         1 <0>         0.0944
     49 H23        -1.8002   -2.9914    8.6720 H         1 <0>         0.0817
     50 H24         2.2555   -6.4921    8.2242 H         1 <0>         0.1314
     51 H25         2.8639   -7.1146   10.5501 H         1 <0>         0.1355
     52 H26         1.3522   -6.4426   12.4000 H         1 <0>         0.1314
     53 H27        -0.6837   -5.3247   13.0314 H         1 <0>         0.4100
     54 H28        -1.7073   -4.5977   11.9149 H         1 <0>         0.4037
     55 H29         0.4748   -0.3293   -0.8280 H         1 <0>         0.4220
@<TRIPOS>BOND
     1    1    2 1
     2    1   27 1
     3    1   28 1
     4    1   29 1
     5    2    7 1
     6    2    3 1
     7    2   55 1
     8    3    4 1
     9    3   30 1
    10    3   31 1
    11    4    5 1
    12    4   32 1
    13    4   33 1
    14    5    6 1
    15    5    8 1
    16    6    7 1
    17    6   34 1
    18    6   35 1
    19    7   36 1
    20    7   37 1
    21    8    9 1
    22    8   38 1
    23    8   39 1
    24    9   10 1
    25    9   40 1
    26    9   41 1
    27   10   11 1
    28   11   16 ar
    29   11   12 ar
    30   12   13 ar
    31   12   42 1
    32   13   14 ar
    33   13   43 1
    34   14   15 ar
    35   14   20 1
    36   15   19 1
    37   15   16 ar
    38   16   17 1
    39   17   18 1
    40   17   44 1
    41   17   45 1
    42   18   19 1
    43   18   46 1
    44   18   47 1
    45   19   48 1
    46   19   49 1
    47   20   25 ar
    48   20   21 ar
    49   21   22 ar
    50   21   50 1
    51   22   23 ar
    52   22   51 1
    53   23   24 ar
    54   23   52 1
    55   24   25 ar
    56   24   26 1
    57   26   53 1
    58   26   54 1
@<TRIPOS>MOLECULE
CHEMBL293212
   46    48     0     0     0
SMALL
USER_CHARGES

@<TRIPOS>ATOM
      1 C1         -0.2646    1.5888    0.6542 C.ar      1 <0>        -0.1050
      2 C2          0.8961    2.3393    0.6234 C.ar      1 <0>        -0.1103
      3 C3          2.0953    1.7448    0.2785 C.ar      1 <0>        -0.0789
      4 C4          2.1346    0.3993   -0.0364 C.ar      1 <0>        -0.0885
      5 C5          0.9736   -0.3521   -0.0057 C.ar      1 <0>        -0.0349
      6 C6         -0.2265    0.2436    0.3401 C.ar      1 <0>        -0.1064
      7 Cl1         1.0221   -2.0417   -0.4015 Cl        1 <0>        -0.0645
      8 C7          3.3600    2.5635    0.2451 C.3       1 <0>         0.1014
      9 N1          4.0030    2.5254    1.5654 N.3       1 <0>        -0.6856
     10 C8          5.2420    3.3146    1.5705 C.3       1 <0>         0.0649
     11 C9          5.8814    3.2510    2.9590 C.3       1 <0>        -0.0911
     12 C10         7.1524    4.0606    2.9643 C.ar      1 <0>        -0.0534
     13 C11         8.3534    3.4615    2.6312 C.ar      1 <0>        -0.0809
     14 C12         9.5201    4.2006    2.6351 C.ar      1 <0>        -0.1509
     15 C13         9.4861    5.5472    2.9740 C.ar      1 <0>         0.0715
     16 C14         8.2781    6.1459    3.3081 C.ar      1 <0>        -0.1021
     17 C15         7.1143    5.4024    3.2968 C.ar      1 <0>        -0.0838
     18 N2         10.6653    6.2982    2.9794 N.pl3     1 <0>        -0.6058
     19 C16        11.6115    6.1053    1.9917 C.cat     1 <0>         0.6430
     20 N3         11.3554    5.3084    0.9883 N.pl3     1 <0>        -0.7345
     21 C17        12.9074    6.7968    2.0695 C.2       1 <0>        -0.3329
     22 C18        14.1410    6.3937    1.5903 C.2       1 <0>        -0.0240
     23 C19        15.1842    7.2635    1.8162 C.2       1 <0>        -0.1939
     24 C20        14.9433    8.4228    2.4729 C.2       1 <0>        -0.1723
     25 S1         13.2960    8.3763    2.7989 S.3       1 <0>         0.3085
     26 H1         -1.2006    2.0529    0.9282 H         1 <0>         0.1344
     27 H2          0.8658    3.3907    0.8686 H         1 <0>         0.1256
     28 H3          3.0715   -0.0650   -0.3066 H         1 <0>         0.1335
     29 H4         -1.1333   -0.3426    0.3642 H         1 <0>         0.1355
     30 H5          4.0392    2.1527   -0.5018 H         1 <0>         0.0843
     31 H6          3.1184    3.5950   -0.0117 H         1 <0>         0.0448
     32 H7          3.3702    2.8411    2.2850 H         1 <0>         0.3466
     33 H8          5.9342    2.9090    0.8328 H         1 <0>         0.0758
     34 H9          5.0135    4.3512    1.3229 H         1 <0>         0.0341
     35 H10         5.1891    3.6566    3.6968 H         1 <0>         0.0828
     36 H11         6.1099    2.2144    3.2066 H         1 <0>         0.0932
     37 H12         8.3792    2.4144    2.3681 H         1 <0>         0.1453
     38 H13        10.4578    3.7320    2.3752 H         1 <0>         0.1342
     39 H14         8.2483    7.1927    3.5721 H         1 <0>         0.1421
     40 H15         6.1740    5.8684    3.5518 H         1 <0>         0.1438
     41 H16        10.8190    6.9548    3.6767 H         1 <0>         0.4446
     42 H17        12.0500    5.1018    0.3435 H         1 <0>         0.4462
     43 H18        14.2772    5.4559    1.0722 H         1 <0>         0.1582
     44 H19        16.1805    7.0243    1.4746 H         1 <0>         0.1589
     45 H20        15.6480    9.2014    2.7251 H         1 <0>         0.2090
     46 H21        10.4707    4.9234    0.8882 H         1 <0>         0.4371
@<TRIPOS>BOND
     1    1    6 ar
     2    1    2 ar
     3    1   26 1
     4    2    3 ar
     5    2   27 1
     6    3    4 ar
     7    3    8 1
     8    4    5 ar
     9    4   28 1
    10    5    6 ar
    11    5    7 1
    12    6   29 1
    13    8    9 1
    14    8   30 1
    15    8   31 1
    16    9   10 1
    17    9   32 1
    18   10   11 1
    19   10   33 1
    20   10   34 1
    21   11   12 1
    22   11   35 1
    23   11   36 1
    24   12   17 ar
    25   12   13 ar
    26   13   14 ar
    27   13   37 1
    28   14   15 ar
    29   14   38 1
    30   15   16 ar
    31   15   18 1
    32   16   17 ar
    33   16   39 1
    34   17   40 1
    35   18   19 1
    36   18   41 1
    37   19   20 2
    38   19   21 1
    39   20   42 1
    40   20   46 1
    41   21   25 1
    42   21   22 2
    43   22   23 1
    44   22   43 1
    45   23   24 2
    46   23   44 1
    47   24   25 1
    48   24   45 1
@<TRIPOS>MOLECULE
CHEMBL293212__1
   46    48     0     0     0
SMALL
USER_CHARGES

@<TRIPOS>ATOM
      1 C1          0.1828    1.0228   -0.0942 C.ar      1 <0>        -0.0996
      2 C2          1.3695    1.7323   -0.1058 C.ar      1 <0>        -0.0893
      3 C3          2.5734    1.0688    0.0383 C.ar      1 <0>        -0.1545
      4 C4          2.5917   -0.3047    0.1936 C.ar      1 <0>        -0.0873
      5 C5          1.4048   -1.0150    0.2053 C.ar      1 <0>        -0.0359
      6 C6          0.1998   -0.3502    0.0614 C.ar      1 <0>        -0.0760
      7 Cl1         1.4271   -2.7400    0.3998 Cl        1 <0>        -0.0406
      8 C7          3.8664    1.8429    0.0255 C.3       1 <0>         0.0476
      9 N1          4.2073    2.2492    1.3954 N.4       1 <0>        -0.5098
     10 C8          5.4677    3.0037    1.3830 C.3       1 <0>        -0.0084
     11 C9          5.8228    3.4269    2.8098 C.3       1 <0>        -0.0949
     12 C10         7.1158    4.2010    2.7970 C.ar      1 <0>        -0.1357
     13 C11         8.3199    3.5351    2.9356 C.ar      1 <0>        -0.0877
     14 C12         9.5066    4.2415    2.9244 C.ar      1 <0>        -0.1116
     15 C13         9.4898    5.6222    2.7736 C.ar      1 <0>         0.1912
     16 C14         8.2786    6.2879    2.6346 C.ar      1 <0>        -0.1536
     17 C15         7.0959    5.5749    2.6410 C.ar      1 <0>        -0.0850
     18 N2         10.6892    6.3403    2.7622 N.pl3     1 <0>        -0.6580
     19 C16        11.8319    5.7680    2.2380 C.2       1 <0>         0.5038
     20 N3         11.7705    4.5972    1.6608 N.2       1 <0>        -0.7354
     21 C17        13.1177    6.4765    2.3294 C.2       1 <0>        -0.2431
     22 C18        14.3628    6.0864    1.8693 C.2       1 <0>        -0.0910
     23 C19        15.3917    6.9708    2.1043 C.2       1 <0>        -0.1783
     24 C20        15.1272    8.1306    2.7510 C.2       1 <0>        -0.2173
     25 S1         13.4762    8.0649    3.0548 S.3       1 <0>         0.2080
     26 H1         -0.7579    1.5423   -0.2024 H         1 <0>         0.1466
     27 H2          1.3557    2.8053   -0.2279 H         1 <0>         0.1392
     28 H3          3.5326   -0.8230    0.3055 H         1 <0>         0.1427
     29 H4         -0.7272   -0.9043    0.0704 H         1 <0>         0.1469
     30 H5          4.6618    1.2149   -0.3758 H         1 <0>         0.1405
     31 H6          3.7531    2.7292   -0.5988 H         1 <0>         0.1418
     32 H7          3.4710    2.8305    1.7670 H         1 <0>         0.4276
     33 H8          6.2631    2.3758    0.9816 H         1 <0>         0.1343
     34 H9          5.3544    3.8900    0.7587 H         1 <0>         0.1340
     35 H10         5.0274    4.0549    3.2111 H         1 <0>         0.0933
     36 H11         5.9361    2.5407    3.4341 H         1 <0>         0.0935
     37 H12         8.3322    2.4616    3.0532 H         1 <0>         0.1244
     38 H13        10.4466    3.7209    3.0330 H         1 <0>         0.1460
     39 H14         8.2621    7.3613    2.5172 H         1 <0>         0.1292
     40 H15         6.1541    6.0913    2.5282 H         1 <0>         0.1256
     41 H16        10.7190    7.2404    3.1225 H         1 <0>         0.4179
     42 H17        12.5730    4.1954    1.2927 H         1 <0>         0.3532
     43 H18        14.5179    5.1476    1.3586 H         1 <0>         0.1435
     44 H19        16.3955    6.7424    1.7777 H         1 <0>         0.1418
     45 H20        15.8184    8.9196    3.0082 H         1 <0>         0.1923
     46 H21         4.3122    1.4288    1.9733 H         1 <0>         0.4279
@<TRIPOS>BOND
     1    1    6 ar
     2    1    2 ar
     3    1   26 1
     4    2    3 ar
     5    2   27 1
     6    3    4 ar
     7    3    8 1
     8    4    5 ar
     9    4   28 1
    10    5    6 ar
    11    5    7 1
    12    6   29 1
    13    8    9 1
    14    8   30 1
    15    8   31 1
    16    9   10 1
    17    9   32 1
    18    9   46 1
    19   10   11 1
    20   10   33 1
    21   10   34 1
    22   11   12 1
    23   11   35 1
    24   11   36 1
    25   12   17 ar
    26   12   13 ar
    27   13   14 ar
    28   13   37 1
    29   14   15 ar
    30   14   38 1
    31   15   16 ar
    32   15   18 1
    33   16   17 ar
    34   16   39 1
    35   17   40 1
    36   18   19 1
    37   18   41 1
    38   19   20 2
    39   19   21 1
    40   20   42 1
    41   21   25 1
    42   21   22 2
    43   22   23 1
    44   22   43 1
    45   23   24 2
    46   23   44 1
    47   24   25 1
    48   24   45 1
@<TRIPOS>MOLECULE
CHEMBL293212__2
   46    48     0     0     0
SMALL
USER_CHARGES

@<TRIPOS>ATOM
      1 C1         -0.2671    1.6197    0.6625 C.ar      1 <0>        -0.0994
      2 C2          0.8988    2.3623    0.6300 C.ar      1 <0>        -0.0892
      3 C3          2.0933    1.7595    0.2833 C.ar      1 <0>        -0.1554
      4 C4          2.1229    0.4138   -0.0318 C.ar      1 <0>        -0.0872
      5 C5          0.9568   -0.3296    0.0005 C.ar      1 <0>        -0.0359
      6 C6         -0.2387    0.2743    0.3481 C.ar      1 <0>        -0.0755
      7 Cl1         0.9931   -2.0194   -0.3955 Cl        1 <0>        -0.0399
      8 C7          3.3636    2.5695    0.2482 C.3       1 <0>         0.0477
      9 N1          4.0082    2.5268    1.5675 N.4       1 <0>        -0.5097
     10 C8          5.2465    3.3164    1.5333 C.3       1 <0>        -0.0087
     11 C9          5.9179    3.2719    2.9073 C.3       1 <0>        -0.0971
     12 C10         7.1882    4.0819    2.8722 C.ar      1 <0>        -0.1304
     13 C11         8.3816    3.4787    2.5196 C.ar      1 <0>        -0.0749
     14 C12         9.5475    4.2181    2.4865 C.ar      1 <0>        -0.1570
     15 C13         9.5206    5.5692    2.8078 C.ar      1 <0>         0.1782
     16 C14         8.3202    6.1720    3.1615 C.ar      1 <0>        -0.1438
     17 C15         7.1569    5.4281    3.1872 C.ar      1 <0>        -0.0767
     18 N2         10.6991    6.3206    2.7756 N.pl3     1 <0>        -0.7049
     19 C16        11.6225    6.1143    1.7693 C.2       1 <0>         0.5011
     20 N3         11.3437    5.3037    0.7829 N.2       1 <0>        -0.7301
     21 C17        12.9195    6.8070    1.8079 C.2       1 <0>        -0.1940
     22 C18        13.9684    6.7446    0.9079 C.2       1 <0>        -0.0661
     23 C19        15.0674    7.5152    1.2153 C.2       1 <0>        -0.1820
     24 C20        15.0517    8.2621    2.3446 C.2       1 <0>        -0.2165
     25 S1         13.5462    7.9516    3.0224 S.3       1 <0>         0.1989
     26 H1         -1.1994    2.0903    0.9378 H         1 <0>         0.1469
     27 H2          0.8761    3.4138    0.8754 H         1 <0>         0.1392
     28 H3          3.0562   -0.0569   -0.3034 H         1 <0>         0.1427
     29 H4         -1.1494   -0.3056    0.3735 H         1 <0>         0.1472
     30 H5          4.0389    2.1541   -0.4998 H         1 <0>         0.1408
     31 H6          3.1288    3.6026   -0.0082 H         1 <0>         0.1421
     32 H7          3.3831    2.9114    2.2599 H         1 <0>         0.4281
     33 H8          5.9218    2.9009    0.7853 H         1 <0>         0.1347
     34 H9          5.0117    4.3495    1.2769 H         1 <0>         0.1347
     35 H10         5.2426    3.6873    3.6553 H         1 <0>         0.0961
     36 H11         6.1527    2.2388    3.1637 H         1 <0>         0.0960
     37 H12         8.4019    2.4281    2.2703 H         1 <0>         0.1307
     38 H13        10.4792    3.7463    2.2114 H         1 <0>         0.1362
     39 H14         8.2959    7.2223    3.4119 H         1 <0>         0.1345
     40 H15         6.2225    5.8972    3.4575 H         1 <0>         0.1308
     41 H16        10.8683    6.9868    3.4601 H         1 <0>         0.4098
     42 H17        13.9280    6.1302    0.0207 H         1 <0>         0.1527
     43 H18        15.9297    7.5234    0.5651 H         1 <0>         0.1419
     44 H19        15.8274    8.9126    2.7208 H         1 <0>         0.1921
     45 H20        10.4571    4.9173    0.7084 H         1 <0>         0.3431
     46 H21         4.2256    1.5705    1.8048 H         1 <0>         0.4284
@<TRIPOS>BOND
     1    1    6 ar
     2    1    2 ar
     3    1   26 1
     4    2    3 ar
     5    2   27 1
     6    3    4 ar
     7    3    8 1
     8    4    5 ar
     9    4   28 1
    10    5    6 ar
    11    5    7 1
    12    6   29 1
    13    8    9 1
    14    8   30 1
    15    8   31 1
    16    9   10 1
    17    9   32 1
    18    9   46 1
    19   10   11 1
    20   10   33 1
    21   10   34 1
    22   11   12 1
    23   11   35 1
    24   11   36 1
    25   12   17 ar
    26   12   13 ar
    27   13   14 ar
    28   13   37 1
    29   14   15 ar
    30   14   38 1
    31   15   16 ar
    32   15   18 1
    33   16   17 ar
    34   16   39 1
    35   17   40 1
    36   18   19 1
    37   18   41 1
    38   19   20 2
    39   19   21 1
    40   20   45 1
    41   21   25 1
    42   21   22 2
    43   22   23 1
    44   22   42 1
    45   23   24 2
    46   23   43 1
    47   24   25 1
    48   24   44 1
@<TRIPOS>MOLECULE
CHEMBL293212__3
   46    48     0     0     0
SMALL
USER_CHARGES

@<TRIPOS>ATOM
      1 C1          0.3323    0.6030    0.2064 C.ar      1 <0>        -0.0993
      2 C2          1.4957    1.3487    0.1615 C.ar      1 <0>        -0.0891
      3 C3          2.7218    0.7268    0.3043 C.ar      1 <0>        -0.1553
      4 C4          2.7855   -0.6414    0.4917 C.ar      1 <0>        -0.0874
      5 C5          1.6218   -1.3879    0.5367 C.ar      1 <0>        -0.0359
      6 C6          0.3946   -0.7646    0.3941 C.ar      1 <0>        -0.0756
      7 Cl1         1.7010   -3.1062    0.7714 Cl        1 <0>        -0.0403
      8 C7          3.9895    1.5402    0.2552 C.3       1 <0>         0.0479
      9 N1          4.3356    1.9897    1.6102 N.4       1 <0>        -0.5100
     10 C8          5.5713    2.7826    1.5623 C.3       1 <0>        -0.0078
     11 C9          5.9319    3.2508    2.9736 C.3       1 <0>        -0.0953
     12 C10         7.1995    4.0643    2.9245 C.ar      1 <0>        -0.1397
     13 C11         8.4256    3.4375    3.0621 C.ar      1 <0>        -0.0836
     14 C12         9.5898    4.1756    3.0187 C.ar      1 <0>        -0.1725
     15 C13         9.5293    5.5593    2.8347 C.ar      1 <0>         0.1518
     16 C14         8.2878    6.1852    2.6959 C.ar      1 <0>        -0.1282
     17 C15         7.1321    5.4336    2.7363 C.ar      1 <0>        -0.0842
     18 N2         10.6792    6.2974    2.7910 N.2       1 <0>        -0.5791
     19 C16        11.6340    5.9785    1.9431 C.2       1 <0>         0.5309
     20 N3         11.4291    4.9752    1.0192 N.pl3     1 <0>        -0.8654
     21 C17        12.9165    6.6906    1.9806 C.2       1 <0>        -0.2108
     22 C18        14.0361    6.5159    1.1832 C.2       1 <0>        -0.0949
     23 C19        15.1009    7.3429    1.4590 C.2       1 <0>        -0.1846
     24 C20        14.9897    8.2469    2.4616 C.2       1 <0>        -0.2362
     25 S1         13.4374    8.0111    3.0590 S.3       1 <0>         0.2898
     26 H1         -0.6257    1.0902    0.0993 H         1 <0>         0.1469
     27 H2          1.4465    2.4175    0.0144 H         1 <0>         0.1393
     28 H3          3.7436   -1.1273    0.6025 H         1 <0>         0.1424
     29 H4         -0.5143   -1.3470    0.4292 H         1 <0>         0.1472
     30 H5          4.7989    0.9279   -0.1424 H         1 <0>         0.1401
     31 H6          3.8400    2.4073   -0.3882 H         1 <0>         0.1418
     32 H7          3.5864    2.5565    1.9782 H         1 <0>         0.4282
     33 H8          6.3807    2.1704    1.1647 H         1 <0>         0.1330
     34 H9          5.4219    3.6497    0.9189 H         1 <0>         0.1339
     35 H10         5.1224    3.8631    3.3712 H         1 <0>         0.0939
     36 H11         6.0813    2.3837    3.6170 H         1 <0>         0.0932
     37 H12         8.4708    2.3679    3.2043 H         1 <0>         0.1223
     38 H13        10.5460    3.6852    3.1270 H         1 <0>         0.1252
     39 H14         8.2334    7.2544    2.5538 H         1 <0>         0.1308
     40 H15         6.1719    5.9154    2.6252 H         1 <0>         0.1250
     41 H16        10.5505    4.5753    0.9243 H         1 <0>         0.4057
     42 H17        14.0709    5.7777    0.3956 H         1 <0>         0.1421
     43 H18        16.0125    7.2719    0.8843 H         1 <0>         0.1391
     44 H19        15.7286    8.9594    2.7974 H         1 <0>         0.1920
     45 H20        12.1636    4.6693    0.4644 H         1 <0>         0.4045
     46 H21         4.4739    1.1870    2.2057 H         1 <0>         0.4280
@<TRIPOS>BOND
     1    1    6 ar
     2    1    2 ar
     3    1   26 1
     4    2    3 ar
     5    2   27 1
     6    3    4 ar
     7    3    8 1
     8    4    5 ar
     9    4   28 1
    10    5    6 ar
    11    5    7 1
    12    6   29 1
    13    8    9 1
    14    8   30 1
    15    8   31 1
    16    9   10 1
    17    9   32 1
    18    9   46 1
    19   10   11 1
    20   10   33 1
    21   10   34 1
    22   11   12 1
    23   11   35 1
    24   11   36 1
    25   12   17 ar
    26   12   13 ar
    27   13   14 ar
    28   13   37 1
    29   14   15 ar
    30   14   38 1
    31   15   16 ar
    32   15   18 1
    33   16   17 ar
    34   16   39 1
    35   17   40 1
    36   18   19 2
    37   19   20 1
    38   19   21 1
    39   20   41 1
    40   20   45 1
    41   21   25 1
    42   21   22 2
    43   22   23 1
    44   22   42 1
    45   23   24 2
    46   23   43 1
    47   24   25 1
    48   24   44 1
@<TRIPOS>MOLECULE
CHEMBL293212__4
   47    49     0     0     0
SMALL
USER_CHARGES

@<TRIPOS>ATOM
      1 C1         -0.2676    1.6219    0.6604 C.ar      1 <0>        -0.0979
      2 C2          0.8984    2.3642    0.6282 C.ar      1 <0>        -0.0890
      3 C3          2.0928    1.7612    0.2817 C.ar      1 <0>        -0.1611
      4 C4          2.1222    0.4155   -0.0332 C.ar      1 <0>        -0.0875
      5 C5          0.9559   -0.3277   -0.0011 C.ar      1 <0>        -0.0359
      6 C6         -0.2395    0.2765    0.3462 C.ar      1 <0>        -0.0718
      7 Cl1         0.9919   -2.0175   -0.3970 Cl        1 <0>        -0.0360
      8 C7          3.3633    2.5710    0.2468 C.3       1 <0>         0.0499
      9 N1          4.0077    2.5282    1.5663 N.4       1 <0>        -0.5108
     10 C8          5.2461    3.3175    1.5323 C.3       1 <0>        -0.0069
     11 C9          5.9172    3.2729    2.9065 C.3       1 <0>        -0.1119
     12 C10         7.1877    4.0827    2.8716 C.ar      1 <0>        -0.0853
     13 C11         8.3810    3.4792    2.5193 C.ar      1 <0>        -0.0737
     14 C12         9.5471    4.2184    2.4863 C.ar      1 <0>        -0.1530
     15 C13         9.5204    5.5695    2.8075 C.ar      1 <0>         0.1009
     16 C14         8.3201    6.1726    3.1610 C.ar      1 <0>        -0.1036
     17 C15         7.1566    5.4289    3.1865 C.ar      1 <0>        -0.0735
     18 N2         10.6991    6.3206    2.7756 N.pl3     1 <0>        -0.6161
     19 C16        11.6225    6.1143    1.7693 C.cat     1 <0>         0.6530
     20 N3         11.3437    5.3037    0.7829 N.pl3     1 <0>        -0.7352
     21 C17        12.9195    6.8070    1.8079 C.2       1 <0>        -0.3468
     22 C18        14.1420    6.3974    1.3061 C.2       1 <0>        -0.0166
     23 C19        15.1898    7.2703    1.4961 C.2       1 <0>        -0.1956
     24 C20        14.9635    8.4385    2.1423 C.2       1 <0>        -0.1620
     25 S1         13.3241    8.3963    2.5066 S.3       1 <0>         0.3147
     26 H1         -1.1999    2.0927    0.9356 H         1 <0>         0.1485
     27 H2          0.8758    3.4158    0.8735 H         1 <0>         0.1389
     28 H3          3.0555   -0.0555   -0.3046 H         1 <0>         0.1418
     29 H4         -1.1504   -0.3032    0.3714 H         1 <0>         0.1493
     30 H5          4.0387    2.1553   -0.5010 H         1 <0>         0.1405
     31 H6          3.1288    3.6041   -0.0096 H         1 <0>         0.1424
     32 H7          3.3825    2.9129    2.2585 H         1 <0>         0.4308
     33 H8          5.9215    2.9019    0.7845 H         1 <0>         0.1346
     34 H9          5.0116    4.3506    1.2758 H         1 <0>         0.1359
     35 H10         5.2419    3.6886    3.6543 H         1 <0>         0.1061
     36 H11         6.1518    2.2398    3.1630 H         1 <0>         0.1053
     37 H12         8.4011    2.4285    2.2700 H         1 <0>         0.1463
     38 H13        10.4788    3.7464    2.2115 H         1 <0>         0.1403
     39 H14         8.2959    7.2229    3.4113 H         1 <0>         0.1491
     40 H15         6.2222    5.8982    3.4566 H         1 <0>         0.1475
     41 H16        10.8684    6.9867    3.4601 H         1 <0>         0.4485
     42 H17        12.0235    5.0884    0.1253 H         1 <0>         0.4493
     43 H18        14.2667    5.4526    0.7979 H         1 <0>         0.1588
     44 H19        16.1780    7.0266    1.1351 H         1 <0>         0.1619
     45 H20        15.6734    9.2206    2.3676 H         1 <0>         0.2120
     46 H21        10.4571    4.9173    0.7084 H         1 <0>         0.4335
     47 H22         4.2248    1.5718    1.8037 H         1 <0>         0.4303
@<TRIPOS>BOND
     1    1    6 ar
     2    1    2 ar
     3    1   26 1
     4    2    3 ar
     5    2   27 1
     6    3    4 ar
     7    3    8 1
     8    4    5 ar
     9    4   28 1
    10    5    6 ar
    11    5    7 1
    12    6   29 1
    13    8    9 1
    14    8   30 1
    15    8   31 1
    16    9   10 1
    17    9   32 1
    18    9   47 1
    19   10   11 1
    20   10   33 1
    21   10   34 1
    22   11   12 1
    23   11   35 1
    24   11   36 1
    25   12   17 ar
    26   12   13 ar
    27   13   14 ar
    28   13   37 1
    29   14   15 ar
    30   14   38 1
    31   15   16 ar
    32   15   18 1
    33   16   17 ar
    34   16   39 1
    35   17   40 1
    36   18   19 1
    37   18   41 1
    38   19   20 2
    39   19   21 1
    40   20   42 1
    41   20   46 1
    42   21   25 1
    43   21   22 2
    44   22   23 1
    45   22   43 1
    46   23   24 2
    47   23   44 1
    48   24   25 1
    49   24   45 1
@<TRIPOS>MOLECULE
CHEMBL293212__5
   45    47     0     0     0
SMALL
USER_CHARGES

@<TRIPOS>ATOM
      1 C1          0.3220    0.6145    0.2037 C.ar      1 <0>        -0.1063
      2 C2          1.4885    1.3555    0.1591 C.ar      1 <0>        -0.1104
      3 C3          2.7119    0.7288    0.3031 C.ar      1 <0>        -0.0725
      4 C4          2.7701   -0.6394    0.4915 C.ar      1 <0>        -0.0885
      5 C5          1.6034   -1.3813    0.5362 C.ar      1 <0>        -0.0349
      6 C6          0.3788   -0.7533    0.3923 C.ar      1 <0>        -0.1100
      7 Cl1         1.6756   -3.0997    0.7721 Cl        1 <0>        -0.0686
      8 C7          3.9828    1.5372    0.2544 C.3       1 <0>         0.0986
      9 N1          4.3298    1.9862    1.6094 N.3       1 <0>        -0.6859
     10 C8          5.5664    2.7793    1.6007 C.3       1 <0>         0.0649
     11 C9          5.8945    3.2279    3.0261 C.3       1 <0>        -0.0755
     12 C10         7.1630    4.0415    3.0172 C.ar      1 <0>        -0.1040
     13 C11         8.3855    3.4124    3.1743 C.ar      1 <0>        -0.0926
     14 C12         9.5506    4.1505    3.1676 C.ar      1 <0>        -0.1667
     15 C13         9.4944    5.5367    3.0012 C.ar      1 <0>         0.1205
     16 C14         8.2565    6.1649    2.8426 C.ar      1 <0>        -0.1242
     17 C15         7.1001    5.4132    2.8462 C.ar      1 <0>        -0.0956
     18 N2         10.6451    6.2748    2.9940 N.2       1 <0>        -0.5669
     19 C16        11.6190    5.9672    2.1639 C.2       1 <0>         0.5102
     20 N3         11.4353    4.9766    1.2219 N.pl3     1 <0>        -0.8674
     21 C17        12.9004    6.6781    2.2405 C.2       1 <0>        -0.1898
     22 C18        14.0379    6.5139    1.4666 C.2       1 <0>        -0.1064
     23 C19        15.0962    7.3366    1.7780 C.2       1 <0>        -0.1810
     24 C20        14.9622    8.2269    2.7902 C.2       1 <0>        -0.2473
     25 S1         13.3966    7.9835    3.3485 S.3       1 <0>         0.2819
     26 H1         -0.6339    1.1053    0.0956 H         1 <0>         0.1329
     27 H2          1.4436    2.4244    0.0113 H         1 <0>         0.1261
     28 H3          3.7262   -1.1291    0.6033 H         1 <0>         0.1342
     29 H4         -0.5324   -1.3320    0.4271 H         1 <0>         0.1334
     30 H5          4.7901    0.9215   -0.1422 H         1 <0>         0.0838
     31 H6          3.8373    2.4045   -0.3896 H         1 <0>         0.0436
     32 H7          6.3846    2.1722    1.2134 H         1 <0>         0.0745
     33 H8          5.4318    3.6551    0.9660 H         1 <0>         0.0326
     34 H9          5.0763    3.8351    3.4134 H         1 <0>         0.0704
     35 H10         6.0291    2.3521    3.6608 H         1 <0>         0.0810
     36 H11         8.4274    2.3409    3.3028 H         1 <0>         0.1219
     37 H12        10.5040    3.6583    3.2911 H         1 <0>         0.1195
     38 H13         8.2055    7.2360    2.7139 H         1 <0>         0.1243
     39 H14         6.1428    5.8969    2.7197 H         1 <0>         0.1217
     40 H15        10.5590    4.5784    1.1014 H         1 <0>         0.4087
     41 H16        14.0908    5.7865    0.6701 H         1 <0>         0.1414
     42 H17        16.0208    7.2731    1.2235 H         1 <0>         0.1358
     43 H18        15.6933    8.9344    3.1525 H         1 <0>         0.1888
     44 H19        12.1823    4.6781    0.6799 H         1 <0>         0.4003
     45 H20         3.5703    2.5053    2.0239 H         1 <0>         0.3434
@<TRIPOS>BOND
     1    1    6 ar
     2    1    2 ar
     3    1   26 1
     4    2    3 ar
     5    2   27 1
     6    3    4 ar
     7    3    8 1
     8    4    5 ar
     9    4   28 1
    10    5    6 ar
    11    5    7 1
    12    6   29 1
    13    8    9 1
    14    8   30 1
    15    8   31 1
    16    9   10 1
    17    9   45 1
    18   10   11 1
    19   10   32 1
    20   10   33 1
    21   11   12 1
    22   11   34 1
    23   11   35 1
    24   12   17 ar
    25   12   13 ar
    26   13   14 ar
    27   13   36 1
    28   14   15 ar
    29   14   37 1
    30   15   16 ar
    31   15   18 1
    32   16   17 ar
    33   16   38 1
    34   17   39 1
    35   18   19 2
    36   19   20 1
    37   19   21 1
    38   20   40 1
    39   20   44 1
    40   21   25 1
    41   21   22 2
    42   22   23 1
    43   22   41 1
    44   23   24 2
    45   23   42 1
    46   24   25 1
    47   24   43 1
@<TRIPOS>MOLECULE
CHEMBL520099
   60    62     0     0     0
SMALL
USER_CHARGES

@<TRIPOS>ATOM
      1 C1         -0.0184    1.5028    0.0103 C.3       1 <0>        -0.1524
      2 C2          0.0021   -0.0041    0.0020 C.ar      1 <0>         0.2125
      3 C3          0.0055   -0.6789   -1.2025 C.ar      1 <0>        -0.1813
      4 C4          0.0244   -2.0671   -1.2042 C.ar      1 <0>         0.0583
      5 C5          0.0391   -2.7287    0.0107 C.ar      1 <0>        -0.2236
      6 C6          0.0346   -1.9849    1.1860 C.ar      1 <0>         0.4647
      7 N1          0.0219   -0.6613    1.1459 N.ar      1 <0>        -0.5072
      8 N2          0.0488   -2.6368    2.4137 N.pl3     1 <0>        -0.8139
      9 C7          0.0282   -2.8360   -2.5003 C.3       1 <0>        -0.0731
     10 C8          1.4718   -3.0766   -2.9463 C.3       1 <0>        -0.1010
     11 H1          2.0140   -2.1324   -2.9973 H         1 <0>         0.1248
     12 C9          2.1777   -4.0485   -1.9766 C.3       1 <0>        -0.0136
     13 N3          3.0445   -4.8830   -2.8480 N.4       1 <0>        -0.5148
     14 C10         2.2179   -5.1280   -4.0578 C.3       1 <0>        -0.0406
     15 C11         1.4983   -3.7843   -4.3167 C.3       1 <0>         0.0755
     16 H2          2.0550   -3.1884   -5.0399 H         1 <0>         0.1312
     17 N4          0.1297   -4.0215   -4.7950 N.3       1 <0>        -0.6629
     18 C12         0.0946   -4.1253   -6.2599 C.3       1 <0>         0.0225
     19 C13        -1.3438   -4.3717   -6.7194 C.3       1 <0>        -0.0109
     20 N5         -1.3789   -4.4755   -8.1843 N.4       1 <0>        -0.5088
     21 C14        -2.7600   -4.7120   -8.6255 C.3       1 <0>        -0.0056
     22 C15        -2.7966   -4.8201  -10.1512 C.3       1 <0>        -0.0996
     23 C16        -4.2134   -5.0628  -10.6038 C.ar      1 <0>        -0.0871
     24 C17        -4.6878   -6.3557  -10.7264 C.ar      1 <0>        -0.1219
     25 C18        -5.9871   -6.5798  -11.1414 C.ar      1 <0>        -0.0803
     26 C19        -6.8135   -5.5114  -11.4348 C.ar      1 <0>        -0.1354
     27 C20        -6.3396   -4.2164  -11.3124 C.ar      1 <0>         0.1114
     28 C21        -5.0396   -3.9930  -10.8906 C.ar      1 <0>        -0.1481
     29 F1         -7.1463   -3.1714  -11.5992 F         1 <0>        -0.1278
     30 H3          1.0042    1.8801    0.0026 H         1 <0>         0.1212
     31 H4         -0.5455    1.8639   -0.8728 H         1 <0>         0.1222
     32 H5         -0.5286    1.8543    0.9071 H         1 <0>         0.1027
     33 H6         -0.0067   -0.1323   -2.1339 H         1 <0>         0.1807
     34 H7          0.0536   -3.8080    0.0460 H         1 <0>         0.1737
     35 H8          0.0619   -3.6061    2.4481 H         1 <0>         0.4419
     36 H9          0.0458   -2.1223    3.2361 H         1 <0>         0.4286
     37 H10        -0.4720   -3.7937   -2.3561 H         1 <0>         0.1019
     38 H11        -0.4974   -2.2630   -3.2642 H         1 <0>         0.1284
     39 H12         2.7817   -3.4958   -1.2570 H         1 <0>         0.1428
     40 H13         1.4454   -4.6703   -1.4615 H         1 <0>         0.1383
     41 H14         3.8864   -4.3828   -3.0912 H         1 <0>         0.4413
     42 H15         2.8522   -5.3881   -4.9053 H         1 <0>         0.1453
     43 H16         1.4920   -5.9187   -3.8684 H         1 <0>         0.1374
     44 H17        -0.2663   -4.8437   -4.3647 H         1 <0>         0.3616
     45 H18         0.4624   -3.1978   -6.6988 H         1 <0>         0.1088
     46 H19         0.7255   -4.9543   -6.5807 H         1 <0>         0.0654
     47 H20        -1.7116   -5.2991   -6.2805 H         1 <0>         0.1335
     48 H21        -1.9747   -3.5427   -6.3987 H         1 <0>         0.1451
     49 H22        -1.0385   -3.6169   -8.5906 H         1 <0>         0.4328
     50 H23        -3.1278   -5.6395   -8.1866 H         1 <0>         0.1370
     51 H24        -3.3909   -3.8830   -8.3048 H         1 <0>         0.1376
     52 H25        -2.4288   -3.8926  -10.5901 H         1 <0>         0.1002
     53 H26        -2.1657   -5.6491  -10.4720 H         1 <0>         0.1011
     54 H27        -4.0426   -7.1911  -10.4981 H         1 <0>         0.1316
     55 H28        -6.3566   -7.5901  -11.2368 H         1 <0>         0.1434
     56 H29        -7.8284   -5.6868  -11.7597 H         1 <0>         0.1468
     57 H30        -4.6701   -2.9831  -10.7905 H         1 <0>         0.1373
     58 H31         3.2692   -5.7544   -2.3916 H         1 <0>         0.4436
     59 H32         0.0233   -0.1628    1.9780 H         1 <0>         0.4466
     60 H33        -0.7949   -5.2428   -8.4812 H         1 <0>         0.4300
@<TRIPOS>BOND
     1    1    2 1
     2    1   30 1
     3    1   31 1
     4    1   32 1
     5    2    7 ar
     6    2    3 ar
     7    3    4 ar
     8    3   33 1
     9    4    5 ar
    10    4    9 1
    11    5    6 ar
    12    5   34 1
    13    6    7 ar
    14    6    8 1
    15    7   59 1
    16    8   35 1
    17    8   36 1
    18    9   10 1
    19    9   37 1
    20    9   38 1
    21   10   11 1
    22   10   15 1
    23   10   12 1
    24   12   13 1
    25   12   39 1
    26   12   40 1
    27   13   14 1
    28   13   41 1
    29   13   58 1
    30   14   15 1
    31   14   42 1
    32   14   43 1
    33   15   16 1
    34   15   17 1
    35   17   18 1
    36   17   44 1
    37   18   19 1
    38   18   45 1
    39   18   46 1
    40   19   20 1
    41   19   47 1
    42   19   48 1
    43   20   21 1
    44   20   49 1
    45   20   60 1
    46   21   22 1
    47   21   50 1
    48   21   51 1
    49   22   23 1
    50   22   52 1
    51   22   53 1
    52   23   28 ar
    53   23   24 ar
    54   24   25 ar
    55   24   54 1
    56   25   26 ar
    57   25   55 1
    58   26   27 ar
    59   26   56 1
    60   27   28 ar
    61   27   29 1
    62   28   57 1
@<TRIPOS>MOLECULE
CHEMBL191242
   28    29     0     0     0
SMALL
USER_CHARGES

@<TRIPOS>ATOM
      1 C1         -0.0187    1.5258    0.0104 C.3       1 <0>        -0.1531
      2 C2          0.0021   -0.0041    0.0020 C.3       1 <0>        -0.0901
      3 H1          0.5122   -0.3563   -0.8946 H         1 <0>         0.0943
      4 C3         -1.4332   -0.5347    0.0152 C.3       1 <0>        -0.1220
      5 C4         -1.4080   -2.0222    0.2257 C.cat     1 <0>         0.5366
      6 N1         -0.4265   -2.6415    0.7500 N.pl3     1 <0>        -0.5896
      7 C5          0.8120   -2.0480    1.2252 C.3       1 <0>         0.1093
      8 H2          1.6628   -2.4029    0.6435 H         1 <0>         0.1331
      9 C6          0.7373   -0.5100    1.2380 C.3       1 <0>        -0.1033
     10 H3          1.7398   -0.0842    1.2796 H         1 <0>         0.1219
     11 C7         -0.0528   -0.1629    2.5113 C.3       1 <0>        -0.1337
     12 C8          0.0928   -1.3685    3.4577 C.3       1 <0>        -0.1340
     13 C9          0.9780   -2.3970    2.7274 C.3       1 <0>        -0.1368
     14 N2         -2.4995   -2.7512   -0.1671 N.pl3     1 <0>        -0.8037
     15 H4          1.0039    1.9031    0.0027 H         1 <0>         0.0745
     16 H5         -0.5459    1.8868   -0.8726 H         1 <0>         0.0699
     17 H6         -0.5289    1.8773    0.9072 H         1 <0>         0.0676
     18 H7         -1.9890   -0.0617    0.8248 H         1 <0>         0.1404
     19 H8         -1.9134   -0.3098   -0.9372 H         1 <0>         0.1331
     20 H9          0.3630    0.7305    2.9773 H         1 <0>         0.0878
     21 H10        -1.1032   -0.0036    2.2677 H         1 <0>         0.0711
     22 H11         0.5693   -1.0580    4.3876 H         1 <0>         0.0843
     23 H12        -0.8861   -1.8006    3.6654 H         1 <0>         0.0665
     24 H13         0.6283   -3.4105    2.9242 H         1 <0>         0.0829
     25 H14         2.0188   -2.2862    3.0317 H         1 <0>         0.1055
     26 H15        -3.2614   -2.3054   -0.5691 H         1 <0>         0.4423
     27 H16        -2.5103   -3.7132   -0.0431 H         1 <0>         0.4241
     28 H17        -0.5142   -3.6032    0.8415 H         1 <0>         0.4213
@<TRIPOS>BOND
     1    1    2 1
     2    1   15 1
     3    1   16 1
     4    1   17 1
     5    2    3 1
     6    2    9 1
     7    2    4 1
     8    4    5 1
     9    4   18 1
    10    4   19 1
    11    5    6 2
    12    5   14 1
    13    6    7 1
    14    6   28 1
    15    7    8 1
    16    7   13 1
    17    7    9 1
    18    9   10 1
    19    9   11 1
    20   11   12 1
    21   11   20 1
    22   11   21 1
    23   12   13 1
    24   12   22 1
    25   12   23 1
    26   13   24 1
    27   13   25 1
    28   14   26 1
    29   14   27 1
@<TRIPOS>MOLECULE
CHEMBL191675
   31    32     0     0     0
SMALL
USER_CHARGES

@<TRIPOS>ATOM
      1 C1         -0.0187    1.5258    0.0104 C.3       1 <0>        -0.1536
      2 C2          0.0021   -0.0041    0.0020 C.3       1 <0>        -0.0932
      3 H1          0.5115   -0.3606   -0.8933 H         1 <0>         0.0950
      4 C3         -1.4314   -0.5413    0.0304 C.3       1 <0>        -0.1229
      5 C4         -1.4281   -2.0107    0.3356 C.cat     1 <0>         0.5375
      6 N1         -0.4283   -2.6427    0.8194 N.pl3     1 <0>        -0.5921
      7 C5          0.8557   -2.0374    1.1312 C.3       1 <0>         0.1199
      8 H2          1.5394   -2.2531    0.3102 H         1 <0>         0.1151
      9 C6          0.7293   -0.5209    1.2544 C.3       1 <0>        -0.1037
     10 H3          1.7181   -0.0678    1.3258 H         1 <0>         0.1225
     11 C7         -0.1141   -0.1685    2.4826 C.3       1 <0>        -0.1258
     12 C8          0.5300   -0.7545    3.7394 C.3       1 <0>        -0.1283
     13 C9          0.5977   -2.2781    3.6069 C.3       1 <0>        -0.1273
     14 C10         1.4482   -2.6246    2.4065 C.3       1 <0>        -0.1338
     15 N2         -2.5714   -2.7207    0.0793 N.pl3     1 <0>        -0.8038
     16 H4          1.0039    1.9031    0.0027 H         1 <0>         0.0747
     17 H5         -0.5459    1.8868   -0.8726 H         1 <0>         0.0699
     18 H6         -0.5289    1.8773    0.9072 H         1 <0>         0.0681
     19 H7         -1.9994   -0.0144    0.7972 H         1 <0>         0.1395
     20 H8         -1.8987   -0.3750   -0.9402 H         1 <0>         0.1330
     21 H9         -0.1775    0.9153    2.5797 H         1 <0>         0.0871
     22 H10        -1.1165   -0.5798    2.3639 H         1 <0>         0.0562
     23 H11         1.5373   -0.3537    3.8531 H         1 <0>         0.0759
     24 H12        -0.0682   -0.4911    4.6118 H         1 <0>         0.0744
     25 H13         1.0408   -2.7029    4.5076 H         1 <0>         0.0824
     26 H14        -0.4074   -2.6771    3.4708 H         1 <0>         0.0567
     27 H15         1.4931   -3.7101    2.3180 H         1 <0>         0.0803
     28 H16         2.4552   -2.2332    2.5511 H         1 <0>         0.1066
     29 H17        -3.3490   -2.2718   -0.2878 H         1 <0>         0.4421
     30 H18        -2.6033   -3.6722    0.2649 H         1 <0>         0.4243
     31 H19        -0.5337   -3.5916    0.9906 H         1 <0>         0.4232
@<TRIPOS>BOND
     1    1    2 1
     2    1   16 1
     3    1   17 1
     4    1   18 1
     5    2    3 1
     6    2    9 1
     7    2    4 1
     8    4    5 1
     9    4   19 1
    10    4   20 1
    11    5    6 2
    12    5   15 1
    13    6    7 1
    14    6   31 1
    15    7    8 1
    16    7   14 1
    17    7    9 1
    18    9   10 1
    19    9   11 1
    20   11   12 1
    21   11   21 1
    22   11   22 1
    23   12   13 1
    24   12   23 1
    25   12   24 1
    26   13   14 1
    27   13   25 1
    28   13   26 1
    29   14   27 1
    30   14   28 1
    31   15   29 1
    32   15   30 1
@<TRIPOS>MOLECULE
CHEMBL113438
   33    33     0     0     0
SMALL
USER_CHARGES

@<TRIPOS>ATOM
      1 C1         -0.0187    1.5258    0.0104 C.3       1 <0>        -0.1582
      2 C2          0.0021   -0.0041    0.0020 C.3       1 <0>        -0.1330
      3 C3          0.7182   -0.4975   -1.2568 C.3       1 <0>        -0.1428
      4 C4          0.7390   -2.0273   -1.2652 C.3       1 <0>         0.1276
      5 C5          1.6301   -2.5052   -2.4201 C.3       1 <0>        -0.1447
      6 C6          2.0673   -3.9484   -2.1806 C.3       1 <0>        -0.1387
      7 C7          0.9792   -4.7942   -1.5495 C.3       1 <0>        -0.1430
      8 C8          0.0533   -5.2357   -2.6802 C.3       1 <0>        -0.1250
      9 C9         -0.6197   -3.9976   -3.2969 C.3       1 <0>        -0.1322
     10 C10        -1.2806   -3.2452   -2.1613 C.cat     1 <0>         0.5405
     11 N1         -0.6164   -2.5118   -1.3739 N.pl3     1 <0>        -0.5985
     12 N2         -2.6338   -3.3620   -1.9822 N.pl3     1 <0>        -0.8000
     13 H1          1.0039    1.9031    0.0027 H         1 <0>         0.0639
     14 H2         -0.5459    1.8868   -0.8726 H         1 <0>         0.0579
     15 H3         -0.5289    1.8773    0.9072 H         1 <0>         0.0641
     16 H4          0.5293   -0.3651    0.8851 H         1 <0>         0.0753
     17 H5         -1.0205   -0.3814    0.0098 H         1 <0>         0.0524
     18 H6          0.1910   -0.1364   -2.1398 H         1 <0>         0.0812
     19 H7          1.7408   -0.1202   -1.2645 H         1 <0>         0.1070
     20 H8          1.1644   -2.3787   -0.3252 H         1 <0>         0.1246
     21 H9          1.0728   -2.4465   -3.3550 H         1 <0>         0.0856
     22 H10         2.5109   -1.8665   -2.4854 H         1 <0>         0.1081
     23 H11         2.3496   -4.3933   -3.1348 H         1 <0>         0.0836
     24 H12         2.9375   -3.9479   -1.5242 H         1 <0>         0.0778
     25 H13         1.4186   -5.6665   -1.0656 H         1 <0>         0.0907
     26 H14         0.4230   -4.2035   -0.8216 H         1 <0>         0.0611
     27 H15         0.6332   -5.7534   -3.4443 H         1 <0>         0.1043
     28 H16        -0.7099   -5.9060   -2.2850 H         1 <0>         0.0805
     29 H17         0.1290   -3.3666   -3.7758 H         1 <0>         0.1380
     30 H18        -1.3696   -4.3057   -4.0256 H         1 <0>         0.1229
     31 H19        -3.1555   -3.9212   -2.5788 H         1 <0>         0.4440
     32 H20        -3.0701   -2.8855   -1.2587 H         1 <0>         0.4232
     33 H21        -1.1673   -2.1867   -0.6447 H         1 <0>         0.4020
@<TRIPOS>BOND
     1    1    2 1
     2    1   13 1
     3    1   14 1
     4    1   15 1
     5    2    3 1
     6    2   16 1
     7    2   17 1
     8    3    4 1
     9    3   18 1
    10    3   19 1
    11    4   11 1
    12    4    5 1
    13    4   20 1
    14    5    6 1
    15    5   21 1
    16    5   22 1
    17    6    7 1
    18    6   23 1
    19    6   24 1
    20    7    8 1
    21    7   25 1
    22    7   26 1
    23    8    9 1
    24    8   27 1
    25    8   28 1
    26    9   10 1
    27    9   29 1
    28    9   30 1
    29   10   11 2
    30   10   12 1
    31   11   33 1
    32   12   31 1
    33   12   32 1
@<TRIPOS>MOLECULE
CHEMBL113438__1
   33    33     0     0     0
SMALL
USER_CHARGES

@<TRIPOS>ATOM
      1 C1         -0.0187    1.5258    0.0104 C.3       1 <0>        -0.1582
      2 C2          0.0021   -0.0041    0.0020 C.3       1 <0>        -0.1330
      3 C3          0.7182   -0.4975   -1.2568 C.3       1 <0>        -0.1428
      4 C4          0.7390   -2.0273   -1.2652 C.3       1 <0>         0.1276
      5 C5          1.2756   -2.5089   -2.6203 C.3       1 <0>        -0.1447
      6 C6          0.8677   -3.9609   -2.8582 C.3       1 <0>        -0.1387
      7 C7          0.9023   -4.7950   -1.5929 C.3       1 <0>        -0.1430
      8 C8          2.3555   -5.2116   -1.3799 C.3       1 <0>        -0.1250
      9 C9          3.2114   -3.9576   -1.1331 C.3       1 <0>        -0.1321
     10 C10         2.5681   -3.2049    0.0124 C.cat     1 <0>         0.5404
     11 N1          1.5393   -2.4892   -0.1563 N.pl3     1 <0>        -0.5985
     12 N2          3.1147   -3.3022    1.2648 N.pl3     1 <0>        -0.8000
     13 H1          1.0039    1.9031    0.0027 H         1 <0>         0.0579
     14 H2         -0.5459    1.8868   -0.8726 H         1 <0>         0.0639
     15 H3         -0.5289    1.8773    0.9072 H         1 <0>         0.0641
     16 H4          0.5293   -0.3651    0.8851 H         1 <0>         0.0524
     17 H5         -1.0205   -0.3814    0.0098 H         1 <0>         0.0753
     18 H6          0.1910   -0.1364   -2.1398 H         1 <0>         0.1070
     19 H7          1.7408   -0.1202   -1.2645 H         1 <0>         0.0812
     20 H8         -0.2801   -2.3938   -1.1410 H         1 <0>         0.1246
     21 H9          0.8667   -1.8837   -3.4141 H         1 <0>         0.1081
     22 H10         2.3629   -2.4330   -2.6264 H         1 <0>         0.0856
     23 H11        -0.1436   -3.9801   -3.2645 H         1 <0>         0.0778
     24 H12         1.5462   -4.4017   -3.5886 H         1 <0>         0.0836
     25 H13         0.5566   -4.2021   -0.7461 H         1 <0>         0.0611
     26 H14         0.2749   -5.6784   -1.7116 H         1 <0>         0.0907
     27 H15         2.4216   -5.8733   -0.5163 H         1 <0>         0.0805
     28 H16         2.7187   -5.7315   -2.2664 H         1 <0>         0.1043
     29 H17         4.2273   -4.2471   -0.8644 H         1 <0>         0.1229
     30 H18         3.2250   -3.3342   -2.0271 H         1 <0>         0.1380
     31 H19         3.9036   -3.8480    1.4086 H         1 <0>         0.4440
     32 H20         2.7129   -2.8254    2.0078 H         1 <0>         0.4232
     33 H21         1.1946   -2.1614    0.6890 H         1 <0>         0.4019
@<TRIPOS>BOND
     1    1    2 1
     2    1   13 1
     3    1   14 1
     4    1   15 1
     5    2    3 1
     6    2   16 1
     7    2   17 1
     8    3    4 1
     9    3   18 1
    10    3   19 1
    11    4   11 1
    12    4    5 1
    13    4   20 1
    14    5    6 1
    15    5   21 1
    16    5   22 1
    17    6    7 1
    18    6   23 1
    19    6   24 1
    20    7    8 1
    21    7   25 1
    22    7   26 1
    23    8    9 1
    24    8   27 1
    25    8   28 1
    26    9   10 1
    27    9   29 1
    28    9   30 1
    29   10   11 2
    30   10   12 1
    31   11   33 1
    32   12   31 1
    33   12   32 1
@<TRIPOS>MOLECULE
CHEMBL192033
   25    26     0     0     0
SMALL
USER_CHARGES

@<TRIPOS>ATOM
      1 C1         -0.0187    1.5258    0.0104 C.3       1 <0>        -0.1594
      2 C2          0.0021   -0.0041    0.0020 C.3       1 <0>        -0.0486
      3 C3         -1.4352   -0.5280   -0.0150 C.3       1 <0>        -0.1192
      4 C4         -2.0247   -0.3265    1.3673 C.cat     1 <0>         0.5484
      5 N1         -1.3425   -0.9191    2.4125 N.pl3     1 <0>        -0.6363
      6 C5          0.0592   -0.9210    2.3593 C.ar      1 <0>         0.1245
      7 C6          0.7315   -0.4976    1.2240 C.ar      1 <0>        -0.1103
      8 C7          2.1168   -0.5236    1.2036 C.ar      1 <0>        -0.0797
      9 C8          2.8236   -0.9620    2.3063 C.ar      1 <0>        -0.1087
     10 C9          2.1526   -1.3784    3.4412 C.ar      1 <0>        -0.0811
     11 C10         0.7725   -1.3588    3.4695 C.ar      1 <0>        -0.1276
     12 N2         -3.1037    0.3608    1.5572 N.pl3     1 <0>        -0.6982
     13 H1          1.0039    1.9031    0.0027 H         1 <0>         0.0803
     14 H2         -0.5459    1.8868   -0.8726 H         1 <0>         0.0768
     15 H3         -0.5289    1.8773    0.9072 H         1 <0>         0.0510
     16 H4          0.5212   -0.3515   -0.8912 H         1 <0>         0.1255
     17 H5         -2.0204    0.0257   -0.7492 H         1 <0>         0.1297
     18 H6         -1.4376   -1.5888   -0.2654 H         1 <0>         0.1435
     19 H7          2.6469   -0.1995    0.3202 H         1 <0>         0.1413
     20 H8          3.9032   -0.9798    2.2819 H         1 <0>         0.1403
     21 H9          2.7069   -1.7186    4.3035 H         1 <0>         0.1429
     22 H10         0.2464   -1.6836    4.3550 H         1 <0>         0.1377
     23 H11        -3.5602    0.7651    0.8029 H         1 <0>         0.4534
     24 H12        -3.4565    0.4719    2.4540 H         1 <0>         0.4355
     25 H13        -1.8166   -1.3199    3.1577 H         1 <0>         0.4383
@<TRIPOS>BOND
     1    1    2 1
     2    1   13 1
     3    1   14 1
     4    1   15 1
     5    2    7 1
     6    2    3 1
     7    2   16 1
     8    3    4 1
     9    3   17 1
    10    3   18 1
    11    4    5 1
    12    4   12 2
    13    5    6 1
    14    5   25 1
    15    6   11 ar
    16    6    7 ar
    17    7    8 ar
    18    8    9 ar
    19    8   19 1
    20    9   10 ar
    21    9   20 1
    22   10   11 ar
    23   10   21 1
    24   11   22 1
    25   12   23 1
    26   12   24 1
@<TRIPOS>MOLECULE
CHEMBL192033__1
   25    26     0     0     0
SMALL
USER_CHARGES

@<TRIPOS>ATOM
      1 C1         -0.0187    1.5258    0.0104 C.3       1 <0>        -0.1524
      2 C2          0.0021   -0.0041    0.0020 C.3       1 <0>        -0.0464
      3 C3          0.6946   -0.4922   -1.2718 C.3       1 <0>        -0.1193
      4 C4          1.0034   -1.9669   -1.1027 C.cat     1 <0>         0.5480
      5 N1          1.7798   -2.3051   -0.0110 N.pl3     1 <0>        -0.6361
      6 C5          1.5671   -1.6023    1.1840 C.ar      1 <0>         0.1230
      7 C6          0.7315   -0.4976    1.2240 C.ar      1 <0>        -0.1118
      8 C7          0.5537    0.1788    2.4203 C.ar      1 <0>        -0.0818
      9 C8          1.1985   -0.2461    3.5655 C.ar      1 <0>        -0.1085
     10 C9          2.0273   -1.3521    3.5267 C.ar      1 <0>        -0.0817
     11 C10         2.2127   -2.0304    2.3386 C.ar      1 <0>        -0.1271
     12 N2          0.5650   -2.8570   -1.9323 N.pl3     1 <0>        -0.6976
     13 H1          1.0039    1.9031    0.0027 H         1 <0>         0.0702
     14 H2         -0.5459    1.8868   -0.8726 H         1 <0>         0.0745
     15 H3         -0.5289    1.8773    0.9072 H         1 <0>         0.0786
     16 H4         -1.0218   -0.3774    0.0194 H         1 <0>         0.1043
     17 H5          0.0346   -0.3499   -2.1275 H         1 <0>         0.1295
     18 H6          1.6203    0.0629   -1.4236 H         1 <0>         0.1430
     19 H7         -0.0925    1.0433    2.4573 H         1 <0>         0.1435
     20 H8          1.0551    0.2872    4.4937 H         1 <0>         0.1402
     21 H9          2.5288   -1.6844    4.4236 H         1 <0>         0.1428
     22 H10         2.8597   -2.8946    2.3061 H         1 <0>         0.1378
     23 H11         0.0216   -2.5883   -2.6895 H         1 <0>         0.4536
     24 H12         0.7796   -3.7933   -1.7972 H         1 <0>         0.4356
     25 H13         2.4489   -3.0050   -0.0690 H         1 <0>         0.4383
@<TRIPOS>BOND
     1    1    2 1
     2    1   13 1
     3    1   14 1
     4    1   15 1
     5    2    7 1
     6    2    3 1
     7    2   16 1
     8    3    4 1
     9    3   17 1
    10    3   18 1
    11    4    5 1
    12    4   12 2
    13    5    6 1
    14    5   25 1
    15    6   11 ar
    16    6    7 ar
    17    7    8 ar
    18    8    9 ar
    19    8   19 1
    20    9   10 ar
    21    9   20 1
    22   10   11 ar
    23   10   21 1
    24   11   22 1
    25   12   23 1
    26   12   24 1
@<TRIPOS>MOLECULE
CHEMBL43245
   46    48     0     0     0
SMALL
USER_CHARGES

@<TRIPOS>ATOM
      1 C1          0.8656   -0.3580   -0.9926 C.3       1 <0>        -0.0555
      2 N1         -0.0118   -0.0050    0.1314 N.4       1 <0>        -0.3897
      3 C2         -0.0444    1.4554    0.2873 C.3       1 <0>        -0.0492
      4 C3         -1.3695   -0.4996   -0.1331 C.3       1 <0>        -0.0031
      5 C4         -1.3621   -2.0295   -0.1431 C.3       1 <0>         0.0205
      6 O1         -1.0223   -2.5127    1.1581 O.3       1 <0>        -0.3154
      7 C5         -0.9712   -3.8592    1.3214 C.ar      1 <0>         0.1899
      8 C6         -1.2351   -4.6946    0.2573 C.ar      1 <0>        -0.2270
      9 C7         -1.1883   -6.0741    0.4044 C.ar      1 <0>        -0.0276
     10 C8         -0.8749   -6.6459    1.6261 C.ar      1 <0>        -0.1314
     11 C9         -0.5988   -5.8127    2.7369 C.ar      1 <0>         0.0210
     12 C10        -0.6424   -4.4068    2.5790 C.ar      1 <0>        -0.0710
     13 C11        -0.3634   -3.5814    3.6804 C.ar      1 <0>        -0.0805
     14 C12        -0.0496   -4.1423    4.8809 C.ar      1 <0>        -0.1104
     15 C13        -0.0009   -5.5260    5.0337 C.ar      1 <0>        -0.0643
     16 C14        -0.2777   -6.3558    3.9894 C.ar      1 <0>        -0.1489
     17 C15        -0.8294   -8.1181    1.7697 C.ar      1 <0>         0.2363
     18 C16         0.1690   -8.7058    2.5445 C.ar      1 <0>        -0.1683
     19 C17         0.2020  -10.0847    2.6726 C.ar      1 <0>         0.0412
     20 C18        -0.7641  -10.8347    2.0223 C.ar      1 <0>        -0.1955
     21 C19        -1.7341  -10.1866    1.2637 C.ar      1 <0>         0.4582
     22 N2         -1.7441   -8.8673    1.1633 N.ar      1 <0>        -0.5063
     23 N3         -2.7061  -10.9331    0.6082 N.pl3     1 <0>        -0.8188
     24 H1          1.8730    0.0089   -0.7963 H         1 <0>         0.1303
     25 H2          0.8897   -1.4416   -1.1083 H         1 <0>         0.1187
     26 H3          0.4850    0.0966   -1.9073 H         1 <0>         0.1276
     27 H4         -0.4426    1.9089   -0.6204 H         1 <0>         0.1259
     28 H5         -0.6804    1.7164    1.1331 H         1 <0>         0.1266
     29 H6          0.9658    1.8244    0.4649 H         1 <0>         0.1289
     30 H7         -2.0438   -0.1446    0.6463 H         1 <0>         0.1460
     31 H8         -1.7080   -0.1315   -1.1016 H         1 <0>         0.1555
     32 H9         -2.3506   -2.3959   -0.4201 H         1 <0>         0.1164
     33 H10        -0.6274   -2.3845   -0.8658 H         1 <0>         0.0949
     34 H11        -1.4821   -4.2699   -0.7045 H         1 <0>         0.1439
     35 H12        -1.3992   -6.7088   -0.4436 H         1 <0>         0.1351
     36 H13        -0.3972   -2.5070    3.5757 H         1 <0>         0.1371
     37 H14         0.1649   -3.5054    5.7263 H         1 <0>         0.1400
     38 H15         0.2508   -5.9468    5.9960 H         1 <0>         0.1415
     39 H16        -0.2374   -7.4269    4.1222 H         1 <0>         0.1437
     40 H17         0.9085   -8.0933    3.0390 H         1 <0>         0.1845
     41 H18         0.9653  -10.5650    3.2668 H         1 <0>         0.1809
     42 H19        -0.7643  -11.9116    2.1028 H         1 <0>         0.1842
     43 H20        -2.7058  -11.9003    0.6809 H         1 <0>         0.4437
     44 H21        -3.3848  -10.4868    0.0780 H         1 <0>         0.4216
     45 H22         0.3404   -0.4258    0.9781 H         1 <0>         0.4317
     46 H23        -2.4326   -8.4375    0.6322 H         1 <0>         0.4375
@<TRIPOS>BOND
     1    1    2 1
     2    1   24 1
     3    1   25 1
     4    1   26 1
     5    2    3 1
     6    2    4 1
     7    2   45 1
     8    3   27 1
     9    3   28 1
    10    3   29 1
    11    4    5 1
    12    4   30 1
    13    4   31 1
    14    5    6 1
    15    5   32 1
    16    5   33 1
    17    6    7 1
    18    7   12 ar
    19    7    8 ar
    20    8    9 ar
    21    8   34 1
    22    9   10 ar
    23    9   35 1
    24   10   11 ar
    25   10   17 1
    26   11   16 ar
    27   11   12 ar
    28   12   13 ar
    29   13   14 ar
    30   13   36 1
    31   14   15 ar
    32   14   37 1
    33   15   16 ar
    34   15   38 1
    35   16   39 1
    36   17   22 ar
    37   17   18 ar
    38   18   19 ar
    39   18   40 1
    40   19   20 ar
    41   19   41 1
    42   20   21 ar
    43   20   42 1
    44   21   22 ar
    45   21   23 1
    46   22   46 1
    47   23   43 1
    48   23   44 1
@<TRIPOS>MOLECULE
CHEMBL43245__1
   45    47     0     0     0
SMALL
USER_CHARGES

@<TRIPOS>ATOM
      1 C1          0.3138    1.4877    0.2533 C.3       1 <0>        -0.0547
      2 N1          0.1655    0.0327    0.1157 N.4       1 <0>        -0.3892
      3 C2          0.8334   -0.4135   -1.1142 C.3       1 <0>        -0.0476
      4 C3          0.7762   -0.6334    1.2738 C.3       1 <0>        -0.0016
      5 C4          0.0014   -0.2655    2.5409 C.3       1 <0>         0.0227
      6 O1         -1.3246   -0.7916    2.4580 O.3       1 <0>        -0.3226
      7 C5         -2.1492   -0.5527    3.5093 C.ar      1 <0>         0.1328
      8 C6         -1.6976    0.1736    4.5902 C.ar      1 <0>        -0.2036
      9 C7         -2.5254    0.4281    5.6750 C.ar      1 <0>        -0.0648
     10 C8         -3.8277   -0.0422    5.6978 C.ar      1 <0>        -0.0407
     11 C9         -4.3192   -0.7908    4.6014 C.ar      1 <0>         0.0023
     12 C10        -3.4720   -1.0420    3.4957 C.ar      1 <0>        -0.0615
     13 C11        -3.9624   -1.7805    2.4064 C.ar      1 <0>        -0.1040
     14 C12        -5.2445   -2.2388    2.4253 C.ar      1 <0>        -0.1102
     15 C13        -6.0795   -1.9859    3.5111 C.ar      1 <0>        -0.1066
     16 C14        -5.6324   -1.2833    4.5892 C.ar      1 <0>        -0.0906
     17 C15        -4.6996    0.2353    6.8609 C.ar      1 <0>         0.2078
     18 C16        -4.7962    1.5341    7.3572 C.ar      1 <0>        -0.2163
     19 C17        -5.6156    1.7829    8.4460 C.ar      1 <0>        -0.0287
     20 C18        -6.3139    0.7258    9.0060 C.ar      1 <0>        -0.2336
     21 C19        -6.1738   -0.5477    8.4630 C.ar      1 <0>         0.4088
     22 N2         -5.3876   -0.7550    7.4192 N.ar      1 <0>        -0.5348
     23 N3         -6.8712   -1.6131    9.0204 N.pl3     1 <0>        -0.8496
     24 H1          1.3727    1.7420    0.3020 H         1 <0>         0.1248
     25 H2         -0.1393    1.9820   -0.6061 H         1 <0>         0.1274
     26 H3         -0.1817    1.8188    1.1659 H         1 <0>         0.1220
     27 H4          1.8922   -0.1592   -1.0655 H         1 <0>         0.1232
     28 H5          0.7233   -1.4931   -1.2163 H         1 <0>         0.1248
     29 H6          0.3802    0.0808   -1.9736 H         1 <0>         0.1259
     30 H7          0.7453   -1.7134    1.1298 H         1 <0>         0.1430
     31 H8          1.8121   -0.3098    1.3746 H         1 <0>         0.1503
     32 H9          0.5058   -0.6870    3.4104 H         1 <0>         0.1112
     33 H10        -0.0434    0.8193    2.6372 H         1 <0>         0.0892
     34 H11        -0.6852    0.5497    4.5934 H         1 <0>         0.1314
     35 H12        -2.1495    0.9993    6.5109 H         1 <0>         0.1351
     36 H13        -3.3259   -1.9835    1.5579 H         1 <0>         0.1262
     37 H14        -5.6194   -2.8062    1.5862 H         1 <0>         0.1277
     38 H15        -7.0926   -2.3599    3.5022 H         1 <0>         0.1286
     39 H16        -6.2901   -1.0953    5.4250 H         1 <0>         0.1394
     40 H17        -4.2384    2.3372    6.8984 H         1 <0>         0.1327
     41 H18        -5.7079    2.7802    8.8501 H         1 <0>         0.1385
     42 H19        -6.9604    0.8883    9.8558 H         1 <0>         0.1344
     43 H20        -7.4517   -1.4665    9.7836 H         1 <0>         0.4114
     44 H21        -6.7774   -2.5030    8.6461 H         1 <0>         0.4052
     45 H22        -0.8147   -0.2026    0.0706 H         1 <0>         0.4338
@<TRIPOS>BOND
     1    1    2 1
     2    1   24 1
     3    1   25 1
     4    1   26 1
     5    2    3 1
     6    2    4 1
     7    2   45 1
     8    3   27 1
     9    3   28 1
    10    3   29 1
    11    4    5 1
    12    4   30 1
    13    4   31 1
    14    5    6 1
    15    5   32 1
    16    5   33 1
    17    6    7 1
    18    7   12 ar
    19    7    8 ar
    20    8    9 ar
    21    8   34 1
    22    9   10 ar
    23    9   35 1
    24   10   11 ar
    25   10   17 1
    26   11   16 ar
    27   11   12 ar
    28   12   13 ar
    29   13   14 ar
    30   13   36 1
    31   14   15 ar
    32   14   37 1
    33   15   16 ar
    34   15   38 1
    35   16   39 1
    36   17   22 ar
    37   17   18 ar
    38   18   19 ar
    39   18   40 1
    40   19   20 ar
    41   19   41 1
    42   20   21 ar
    43   20   42 1
    44   21   22 ar
    45   21   23 1
    46   23   43 1
    47   23   44 1
@<TRIPOS>MOLECULE
CHEMBL6808
   21    21     0     0     0
SMALL
USER_CHARGES

@<TRIPOS>ATOM
      1 C1         -0.0187    1.5258    0.0104 C.3       1 <0>        -0.1537
      2 C2          0.0021   -0.0041    0.0020 C.3       1 <0>        -0.0977
      3 C3         -1.4345   -0.5417    0.0451 C.3       1 <0>        -0.1489
      4 C4         -1.3866   -2.0626   -0.1113 C.3       1 <0>         0.0805
      5 N1         -0.4198   -2.6406    0.8126 N.pl3     1 <0>        -0.6017
      6 C5          0.5079   -1.9917    1.4007 C.cat     1 <0>         0.5372
      7 C6          0.7416   -0.5176    1.2406 C.3       1 <0>        -0.1206
      8 N2          1.3459   -2.6859    2.2331 N.pl3     1 <0>        -0.8035
      9 H1          1.0039    1.9031    0.0027 H         1 <0>         0.0700
     10 H2         -0.5459    1.8868   -0.8726 H         1 <0>         0.0746
     11 H3         -0.5289    1.8773    0.9072 H         1 <0>         0.0666
     12 H4          0.5019   -0.3601   -0.8988 H         1 <0>         0.0946
     13 H5         -1.8938   -0.2852    0.9997 H         1 <0>         0.0892
     14 H6         -2.0135   -0.1071   -0.7698 H         1 <0>         0.1146
     15 H7         -2.3735   -2.4767    0.0951 H         1 <0>         0.1211
     16 H8         -1.0999   -2.3102   -1.1334 H         1 <0>         0.1133
     17 H9          1.8095   -0.3305    1.1281 H         1 <0>         0.1336
     18 H10         0.3748    0.0051    2.1239 H         1 <0>         0.1386
     19 H11         1.2232   -3.6398    2.3594 H         1 <0>         0.4246
     20 H12         2.0620   -2.2235    2.6961 H         1 <0>         0.4425
     21 H13        -0.4868   -3.5910    0.9947 H         1 <0>         0.4252
@<TRIPOS>BOND
     1    1    2 1
     2    1    9 1
     3    1   10 1
     4    1   11 1
     5    2    7 1
     6    2    3 1
     7    2   12 1
     8    3    4 1
     9    3   13 1
    10    3   14 1
    11    4    5 1
    12    4   15 1
    13    4   16 1
    14    5    6 2
    15    5   21 1
    16    6    7 1
    17    6    8 1
    18    7   17 1
    19    7   18 1
    20    8   19 1
    21    8   20 1
@<TRIPOS>MOLECULE
CHEMBL6808__1
   21    21     0     0     0
SMALL
USER_CHARGES

@<TRIPOS>ATOM
      1 C1         -0.0187    1.5258    0.0104 C.3       1 <0>        -0.1537
      2 C2          0.0021   -0.0041    0.0020 C.3       1 <0>        -0.0977
      3 C3          0.7472   -0.5050   -1.2424 C.3       1 <0>        -0.1489
      4 C4          0.6250   -2.0288   -1.2984 C.3       1 <0>         0.0805
      5 N1          0.9810   -2.6171   -0.0141 N.pl3     1 <0>        -0.6017
      6 C5          1.0314   -1.9829    1.0918 C.cat     1 <0>         0.5372
      7 C6          0.7416   -0.5176    1.2406 C.3       1 <0>        -0.1207
      8 N2          1.3724   -2.6855    2.2175 N.pl3     1 <0>        -0.8035
      9 H1          1.0039    1.9031    0.0027 H         1 <0>         0.0666
     10 H2         -0.5459    1.8868   -0.8726 H         1 <0>         0.0746
     11 H3         -0.5289    1.8773    0.9072 H         1 <0>         0.0699
     12 H4         -1.0189   -0.3857   -0.0013 H         1 <0>         0.0945
     13 H5          0.3029   -0.0681   -2.1368 H         1 <0>         0.1147
     14 H6          1.7982   -0.2232   -1.1790 H         1 <0>         0.0892
     15 H7         -0.4018   -2.2985   -1.5453 H         1 <0>         0.1133
     16 H8          1.2928   -2.4151   -2.0684 H         1 <0>         0.1210
     17 H9          1.6789    0.0271    1.3544 H         1 <0>         0.1386
     18 H10         0.1226   -0.3588    2.1236 H         1 <0>         0.1336
     19 H11         1.5660   -3.6340    2.1571 H         1 <0>         0.4246
     20 H12         1.4201   -2.2343    3.0749 H         1 <0>         0.4425
     21 H13         1.1958   -3.5629    0.0014 H         1 <0>         0.4252
@<TRIPOS>BOND
     1    1    2 1
     2    1    9 1
     3    1   10 1
     4    1   11 1
     5    2    7 1
     6    2    3 1
     7    2   12 1
     8    3    4 1
     9    3   13 1
    10    3   14 1
    11    4    5 1
    12    4   15 1
    13    4   16 1
    14    5    6 2
    15    5   21 1
    16    6    7 1
    17    6    8 1
    18    7   17 1
    19    7   18 1
    20    8   19 1
    21    8   20 1
@<TRIPOS>MOLECULE
CHEMBL544514
   48    51     0     0     0
SMALL
USER_CHARGES

@<TRIPOS>ATOM
      1 C1         -0.0167    1.3777    0.0096 C.ar      1 <0>        -0.0976
      2 C2          1.1710    2.0855    0.0021 C.ar      1 <0>        -0.0882
      3 C3          2.3777    1.4116   -0.0130 C.ar      1 <0>        -0.1599
      4 C4          2.3977    0.0294   -0.0210 C.ar      1 <0>        -0.0882
      5 C5          1.2098   -0.6793   -0.0135 C.ar      1 <0>        -0.0364
      6 C6          0.0021   -0.0041    0.0020 C.ar      1 <0>        -0.0720
      7 Cl1         1.2341   -2.4151   -0.0242 Cl        1 <0>        -0.0370
      8 C7          3.6718    2.1839   -0.0212 C.3       1 <0>         0.0473
      9 N1          4.1055    2.4274    1.3610 N.4       1 <0>        -0.5092
     10 C8          5.3669    3.1802    1.3530 C.3       1 <0>         0.0413
     11 C9          5.8118    3.4300    2.7710 C.ar      1 <0>        -0.1273
     12 C10         5.3994    4.5694    3.4378 C.ar      1 <0>        -0.0875
     13 C11         5.8083    4.8014    4.7351 C.ar      1 <0>        -0.0754
     14 C12         6.6354    3.8959    5.3870 C.ar      1 <0>        -0.0691
     15 C13         7.0417    2.7545    4.7188 C.ar      1 <0>         0.1419
     16 C14         6.6279    2.5201    3.4119 C.ar      1 <0>        -0.1070
     17 N2          7.8626    1.8061    5.3465 N.pl3     1 <0>        -0.6499
     18 C15         8.4702    2.1788    6.5276 C.cat     1 <0>         0.5625
     19 C16         7.6544    2.9839    7.5047 C.3       1 <0>        -0.0976
     20 H1          8.2548    3.2735    8.3671 H         1 <0>         0.1479
     21 C17         7.0516    4.2110    6.7979 C.3       1 <0>        -0.0491
     22 H2          7.7566    5.0422    6.8098 H         1 <0>         0.1232
     23 C18         5.7847    4.5404    7.6178 C.3       1 <0>        -0.1203
     24 C19         5.3827    3.2463    8.3468 C.3       1 <0>        -0.1258
     25 C20         6.4141    2.1727    7.9406 C.3       1 <0>        -0.1144
     26 N3          9.6938    1.8491    6.7862 N.pl3     1 <0>        -0.6829
     27 H3         -0.9592    1.9048    0.0259 H         1 <0>         0.1488
     28 H4          1.1559    3.1654    0.0076 H         1 <0>         0.1399
     29 H5          3.3407   -0.4970   -0.0336 H         1 <0>         0.1411
     30 H6         -0.9257   -0.5568    0.0079 H         1 <0>         0.1491
     31 H7          4.4349    1.6086   -0.5454 H         1 <0>         0.1426
     32 H8          3.5229    3.1370   -0.5286 H         1 <0>         0.1459
     33 H9          3.3991    2.9600    1.8463 H         1 <0>         0.4296
     34 H10         6.1300    2.6048    0.8288 H         1 <0>         0.1444
     35 H11         5.2180    4.1333    0.8457 H         1 <0>         0.1492
     36 H12         4.7555    5.2802    2.9413 H         1 <0>         0.1485
     37 H13         5.4827    5.6945    5.2476 H         1 <0>         0.1550
     38 H14         6.9495    1.6273    2.8962 H         1 <0>         0.1462
     39 H15         6.0027    5.3247    8.3426 H         1 <0>         0.0930
     40 H16         4.9820    4.8589    6.9527 H         1 <0>         0.0867
     41 H17         5.4102    3.4014    9.4253 H         1 <0>         0.0871
     42 H18         4.3833    2.9393    8.0387 H         1 <0>         0.0830
     43 H19         6.0370    1.5765    7.1097 H         1 <0>         0.0790
     44 H20         6.6552    1.5346    8.7907 H         1 <0>         0.0957
     45 H21        10.2023    1.3299    6.1438 H         1 <0>         0.4390
     46 H22        10.1029    2.1210    7.6226 H         1 <0>         0.4580
     47 H23         7.9972    0.9241    4.9659 H         1 <0>         0.4426
     48 H24         4.2433    1.5451    1.8307 H         1 <0>         0.4263
@<TRIPOS>BOND
     1    1    6 ar
     2    1    2 ar
     3    1   27 1
     4    2    3 ar
     5    2   28 1
     6    3    4 ar
     7    3    8 1
     8    4    5 ar
     9    4   29 1
    10    5    6 ar
    11    5    7 1
    12    6   30 1
    13    8    9 1
    14    8   31 1
    15    8   32 1
    16    9   10 1
    17    9   33 1
    18    9   48 1
    19   10   11 1
    20   10   34 1
    21   10   35 1
    22   11   16 ar
    23   11   12 ar
    24   12   13 ar
    25   12   36 1
    26   13   14 ar
    27   13   37 1
    28   14   21 1
    29   14   15 ar
    30   15   16 ar
    31   15   17 1
    32   16   38 1
    33   17   18 1
    34   17   47 1
    35   18   19 1
    36   18   26 2
    37   19   20 1
    38   19   25 1
    39   19   21 1
    40   21   22 1
    41   21   23 1
    42   23   24 1
    43   23   39 1
    44   23   40 1
    45   24   25 1
    46   24   41 1
    47   24   42 1
    48   25   43 1
    49   25   44 1
    50   26   45 1
    51   26   46 1
@<TRIPOS>MOLECULE
CHEMBL544514__1
   47    50     0     0     0
SMALL
USER_CHARGES

@<TRIPOS>ATOM
      1 C1         -0.0167    1.3777    0.0096 C.ar      1 <0>        -0.0998
      2 C2          1.1710    2.0855    0.0021 C.ar      1 <0>        -0.0892
      3 C3          2.3777    1.4116   -0.0130 C.ar      1 <0>        -0.1533
      4 C4          2.3977    0.0294   -0.0210 C.ar      1 <0>        -0.0871
      5 C5          1.2098   -0.6793   -0.0135 C.ar      1 <0>        -0.0358
      6 C6          0.0021   -0.0041    0.0020 C.ar      1 <0>        -0.0766
      7 Cl1         1.2341   -2.4151   -0.0242 Cl        1 <0>        -0.0412
      8 C7          3.6718    2.1839   -0.0212 C.3       1 <0>         0.0462
      9 N1          4.1055    2.4274    1.3610 N.4       1 <0>        -0.5085
     10 C8          5.3669    3.1802    1.3530 C.3       1 <0>         0.0482
     11 C9          5.8118    3.4300    2.7710 C.ar      1 <0>        -0.1504
     12 C10         5.3971    4.5710    3.4348 C.ar      1 <0>        -0.1226
     13 C11         5.8029    4.8071    4.7350 C.ar      1 <0>        -0.0904
     14 C12         6.6247    3.9035    5.3835 C.ar      1 <0>        -0.1090
     15 C13         7.0421    2.7534    4.7217 C.ar      1 <0>         0.1635
     16 C14         6.6273    2.5184    3.4080 C.ar      1 <0>        -0.0941
     17 N2          7.8487    1.8422    5.3472 N.2       1 <0>        -0.6033
     18 C15         8.0442    1.8804    6.6245 C.2       1 <0>         0.4591
     19 C16         7.4284    2.8909    7.5246 C.3       1 <0>        -0.1082
     20 H1          8.1261    3.1288    8.3276 H         1 <0>         0.1051
     21 C17         7.0518    4.1914    6.8022 C.3       1 <0>        -0.0455
     22 H2          7.8773    4.9030    6.8239 H         1 <0>         0.1019
     23 C18         5.8092    4.7376    7.5473 C.3       1 <0>        -0.1216
     24 C19         5.4747    3.7117    8.6516 C.3       1 <0>        -0.1254
     25 C20         6.1035    2.3884    8.1366 C.3       1 <0>        -0.1067
     26 N3          8.8641    0.9368    7.1798 N.pl3     1 <0>        -0.8209
     27 H3         -0.9592    1.9048    0.0259 H         1 <0>         0.1464
     28 H4          1.1559    3.1654    0.0076 H         1 <0>         0.1393
     29 H5          3.3407   -0.4970   -0.0336 H         1 <0>         0.1427
     30 H6         -0.9257   -0.5568    0.0079 H         1 <0>         0.1466
     31 H7          4.4349    1.6086   -0.5454 H         1 <0>         0.1409
     32 H8          3.5229    3.1370   -0.5286 H         1 <0>         0.1425
     33 H9          3.3991    2.9600    1.8463 H         1 <0>         0.4270
     34 H10         6.1300    2.6048    0.8288 H         1 <0>         0.1382
     35 H11         5.2180    4.1333    0.8457 H         1 <0>         0.1391
     36 H12         4.7541    5.2803    2.9349 H         1 <0>         0.1287
     37 H13         5.4765    5.7005    5.2465 H         1 <0>         0.1343
     38 H14         6.9476    1.6259    2.8912 H         1 <0>         0.1337
     39 H15         6.0364    5.7060    7.9931 H         1 <0>         0.0766
     40 H16         4.9706    4.8307    6.8572 H         1 <0>         0.0761
     41 H17         5.9277    4.0074    9.5979 H         1 <0>         0.0761
     42 H18         4.3954    3.6052    8.7602 H         1 <0>         0.0752
     43 H19         5.4730    1.9260    7.3771 H         1 <0>         0.0698
     44 H20         6.2903    1.6986    8.9597 H         1 <0>         0.0800
     45 H21         9.2799    0.2643    6.6178 H         1 <0>         0.4113
     46 H22         9.0298    0.9401    8.1355 H         1 <0>         0.4135
     47 H23         4.2433    1.5451    1.8307 H         1 <0>         0.4275
@<TRIPOS>BOND
     1    1    6 ar
     2    1    2 ar
     3    1   27 1
     4    2    3 ar
     5    2   28 1
     6    3    4 ar
     7    3    8 1
     8    4    5 ar
     9    4   29 1
    10    5    6 ar
    11    5    7 1
    12    6   30 1
    13    8    9 1
    14    8   31 1
    15    8   32 1
    16    9   10 1
    17    9   33 1
    18    9   47 1
    19   10   11 1
    20   10   34 1
    21   10   35 1
    22   11   16 ar
    23   11   12 ar
    24   12   13 ar
    25   12   36 1
    26   13   14 ar
    27   13   37 1
    28   14   21 1
    29   14   15 ar
    30   15   16 ar
    31   15   17 1
    32   16   38 1
    33   17   18 2
    34   18   19 1
    35   18   26 1
    36   19   20 1
    37   19   25 1
    38   19   21 1
    39   21   22 1
    40   21   23 1
    41   23   24 1
    42   23   39 1
    43   23   40 1
    44   24   25 1
    45   24   41 1
    46   24   42 1
    47   25   43 1
    48   25   44 1
    49   26   45 1
    50   26   46 1
@<TRIPOS>MOLECULE
CHEMBL226447
   46    46     0     0     0
SMALL
USER_CHARGES

@<TRIPOS>ATOM
      1 C1         -0.2445    1.8605   -0.2480 C.3       1 <0>        -0.1594
      2 C2          1.1683    2.4461   -0.2993 C.3       1 <0>        -0.0033
      3 N1          1.8516    1.9794   -1.5116 N.4       1 <0>        -0.5085
      4 C3          2.0029    0.5200   -1.4676 C.3       1 <0>        -0.0045
      5 C4          0.6222   -0.1397   -1.4612 C.3       1 <0>        -0.1630
      6 C5         -0.1571    0.3317   -0.2301 C.3       1 <0>         0.1315
      7 N2         -1.5071   -0.2365   -0.2578 N.am      1 <0>        -0.7041
      8 C6         -1.7304   -1.4678    0.2428 C.2       1 <0>         0.5087
      9 O1         -0.8137   -2.1054    0.7162 O.2       1 <0>        -0.5072
     10 C7         -3.1192   -2.0523    0.2144 C.3       1 <0>         0.0128
     11 H1         -3.5992   -1.8025   -0.7318 H         1 <0>         0.1716
     12 C8         -3.9391   -1.4754    1.3701 C.3       1 <0>        -0.1411
     13 C9         -5.3828   -1.9716    1.2688 C.3       1 <0>        -0.1484
     14 C10        -6.2028   -1.3947    2.4245 C.3       1 <0>         0.1060
     15 N3         -7.5852   -1.8699    2.3275 N.pl3     1 <0>        -0.6887
     16 C11        -8.4958   -1.4875    3.2460 C.2       1 <0>         0.7115
     17 N4         -8.1337   -0.6676    4.2540 N.pl3     1 <0>        -0.8401
     18 N5         -9.7667   -1.9244    3.1568 N.2       1 <0>        -0.4935
     19 N6        -10.6589   -1.4849    3.9783 N.pl3     1 <0>         0.1831
     20 O2        -11.3975   -0.4441    3.6533 O.2       1 <0>        -0.2230
     21 O3        -10.8313   -2.0771    5.1419 O.3       1 <0>        -0.2317
     22 N7         -3.0387   -3.5126    0.3522 N.4       1 <0>        -0.6249
     23 H2         -0.7496    2.2068    0.6537 H         1 <0>         0.1232
     24 H3         -0.8042    2.1828   -1.1261 H         1 <0>         0.1001
     25 H4          1.1097    3.5345   -0.3120 H         1 <0>         0.1462
     26 H5          1.7270    2.1234    0.5792 H         1 <0>         0.1376
     27 H6          1.3086    2.2359   -2.3225 H         1 <0>         0.4305
     28 H7          2.5605    0.1864   -2.3427 H         1 <0>         0.1432
     29 H8          2.5438    0.2384   -0.5641 H         1 <0>         0.1368
     30 H9          0.0805    0.1411   -2.3644 H         1 <0>         0.0963
     31 H10         0.7367   -1.2231   -1.4267 H         1 <0>         0.1161
     32 H11         0.3580    0.0066    0.6738 H         1 <0>         0.1153
     33 H12        -2.2403    0.2734   -0.6364 H         1 <0>         0.4173
     34 H13        -3.5092   -1.7995    2.3179 H         1 <0>         0.1089
     35 H14        -3.9246   -0.3867    1.3180 H         1 <0>         0.1243
     36 H15        -5.8127   -1.6475    0.3210 H         1 <0>         0.1027
     37 H16        -5.3973   -3.0603    1.3209 H         1 <0>         0.0815
     38 H17        -5.7728   -1.7188    3.3723 H         1 <0>         0.0867
     39 H18        -6.1883   -0.3061    2.3724 H         1 <0>         0.0897
     40 H19        -7.8456   -2.4595    1.6026 H         1 <0>         0.4346
     41 H20        -7.2015   -0.4270    4.3724 H         1 <0>         0.4163
     42 H21        -2.5944   -3.7438    1.2281 H         1 <0>         0.4456
     43 H22        -3.9685   -3.9040    0.3331 H         1 <0>         0.4457
     44 H23        -8.8054   -0.3187    4.8605 H         1 <0>         0.4319
     45 H24         2.7626    2.4093   -1.5697 H         1 <0>         0.4414
     46 H25        -2.4980   -3.8931   -0.4100 H         1 <0>         0.4444
@<TRIPOS>BOND
     1    1    6 1
     2    1    2 1
     3    1   23 1
     4    1   24 1
     5    2    3 1
     6    2   25 1
     7    2   26 1
     8    3    4 1
     9    3   27 1
    10    3   45 1
    11    4    5 1
    12    4   28 1
    13    4   29 1
    14    5    6 1
    15    5   30 1
    16    5   31 1
    17    6    7 1
    18    6   32 1
    19    7    8 am
    20    7   33 1
    21    8    9 2
    22    8   10 1
    23   10   11 1
    24   10   12 1
    25   10   22 1
    26   12   13 1
    27   12   34 1
    28   12   35 1
    29   13   14 1
    30   13   36 1
    31   13   37 1
    32   14   15 1
    33   14   38 1
    34   14   39 1
    35   15   16 1
    36   15   40 1
    37   16   17 1
    38   16   18 2
    39   17   41 1
    40   17   44 1
    41   18   19 1
    42   19   20 2
    43   19   21 1
    44   22   42 1
    45   22   43 1
    46   22   46 1
@<TRIPOS>MOLECULE
CHEMBL540048
   46    47     0     0     0
SMALL
USER_CHARGES

@<TRIPOS>ATOM
      1 C1         -0.0022    0.7534    2.0157 C.3       1 <0>        -0.1804
      2 C2         -0.0065   -0.7018    1.6241 C.2       1 <0>         0.2236
      3 N1         -0.0672   -1.6166    2.5360 N.2       1 <0>        -0.6757
      4 C3          0.0587   -1.0830    0.1994 C.ar      1 <0>        -0.0530
      5 C4          0.1302   -0.0978   -0.7877 C.ar      1 <0>        -0.0564
      6 C5          0.1908   -0.4610   -2.1169 C.ar      1 <0>        -0.1157
      7 C6          0.1804   -1.7981   -2.4733 C.ar      1 <0>        -0.0789
      8 C7          0.1093   -2.7793   -1.5006 C.ar      1 <0>        -0.1786
      9 C8          0.0549   -2.4302   -0.1669 C.ar      1 <0>        -0.0510
     10 C9          0.0981   -4.2328   -1.8984 C.3       1 <0>         0.0473
     11 N2          1.4773   -4.7351   -1.9569 N.4       1 <0>        -0.5092
     12 C10         1.4663   -6.1520   -2.3446 C.3       1 <0>         0.0378
     13 C11         2.8812   -6.6673   -2.4046 C.ar      1 <0>        -0.1462
     14 C12         3.5968   -6.5827   -3.5848 C.ar      1 <0>        -0.0561
     15 C13         4.8938   -7.0536   -3.6430 C.ar      1 <0>        -0.1058
     16 C14         5.4793   -7.6127   -2.5145 C.ar      1 <0>         0.1156
     17 C15         4.7578   -7.6962   -1.3306 C.ar      1 <0>        -0.1570
     18 C16         3.4630   -7.2186   -1.2777 C.ar      1 <0>        -0.0562
     19 N3          6.7923   -8.0909   -2.5701 N.pl3     1 <0>        -0.6182
     20 C17         7.1254   -9.2566   -1.9287 C.cat     1 <0>         0.5476
     21 N4          6.2046   -9.9741   -1.3718 N.pl3     1 <0>        -0.7286
     22 C18         8.5642   -9.7014   -1.8729 C.3       1 <0>        -0.1679
     23 H1          1.0251    1.0874    2.1615 H         1 <0>         0.0899
     24 H2         -0.4674    1.3435    1.2261 H         1 <0>         0.0841
     25 H3         -0.5611    0.8818    2.9426 H         1 <0>         0.0812
     26 H4         -0.1101   -1.3662    3.4721 H         1 <0>         0.3535
     27 H5          0.1376    0.9461   -0.5110 H         1 <0>         0.1448
     28 H6          0.2461    0.2999   -2.8814 H         1 <0>         0.1433
     29 H7          0.2277   -2.0770   -3.5156 H         1 <0>         0.1344
     30 H8          0.0047   -3.1973    0.5917 H         1 <0>         0.1434
     31 H9         -0.4666   -4.8063   -1.1633 H         1 <0>         0.1420
     32 H10        -0.3687   -4.3379   -2.8778 H         1 <0>         0.1429
     33 H11         2.0000   -4.2043   -2.6373 H         1 <0>         0.4277
     34 H12         0.9016   -6.7255   -1.6095 H         1 <0>         0.1470
     35 H13         0.9996   -6.2571   -3.3240 H         1 <0>         0.1479
     36 H14         3.1409   -6.1481   -4.4621 H         1 <0>         0.1545
     37 H15         5.4521   -6.9875   -4.5652 H         1 <0>         0.1552
     38 H16         5.2102   -8.1304   -0.4513 H         1 <0>         0.1453
     39 H17         2.9028   -7.2795   -0.3563 H         1 <0>         0.1535
     40 H18         7.4675   -7.5982   -3.0623 H         1 <0>         0.4545
     41 H19         5.2707   -9.7375   -1.4847 H         1 <0>         0.4295
     42 H20         9.0374   -9.2895   -0.9816 H         1 <0>         0.1433
     43 H21         8.6068  -10.7899   -1.8368 H         1 <0>         0.1318
     44 H22         9.0889   -9.3464   -2.7599 H         1 <0>         0.1306
     45 H23         6.4480  -10.7489   -0.8413 H         1 <0>         0.4549
     46 H24         1.9094   -4.6379   -1.0503 H         1 <0>         0.4280
@<TRIPOS>BOND
     1    1    2 1
     2    1   23 1
     3    1   24 1
     4    1   25 1
     5    2    3 2
     6    2    4 1
     7    3   26 1
     8    4    9 ar
     9    4    5 ar
    10    5    6 ar
    11    5   27 1
    12    6    7 ar
    13    6   28 1
    14    7    8 ar
    15    7   29 1
    16    8    9 ar
    17    8   10 1
    18    9   30 1
    19   10   11 1
    20   10   31 1
    21   10   32 1
    22   11   12 1
    23   11   33 1
    24   11   46 1
    25   12   13 1
    26   12   34 1
    27   12   35 1
    28   13   18 ar
    29   13   14 ar
    30   14   15 ar
    31   14   36 1
    32   15   16 ar
    33   15   37 1
    34   16   17 ar
    35   16   19 1
    36   17   18 ar
    37   17   38 1
    38   18   39 1
    39   19   20 1
    40   19   40 1
    41   20   21 2
    42   20   22 1
    43   21   41 1
    44   21   45 1
    45   22   42 1
    46   22   43 1
    47   22   44 1
@<TRIPOS>MOLECULE
CHEMBL540048__1
   46    47     0     0     0
SMALL
USER_CHARGES

@<TRIPOS>ATOM
      1 C1         -0.0022    0.7534    2.0157 C.3       1 <0>        -0.1231
      2 C2         -0.0065   -0.7018    1.6241 C.2       1 <0>         0.2290
      3 N1         -0.0672   -1.6166    2.5360 N.2       1 <0>        -0.6586
      4 C3          0.0587   -1.0830    0.1994 C.ar      1 <0>        -0.1064
      5 C4          0.1302   -0.0978   -0.7877 C.ar      1 <0>        -0.0497
      6 C5          0.1908   -0.4610   -2.1169 C.ar      1 <0>        -0.1105
      7 C6          0.1804   -1.7981   -2.4733 C.ar      1 <0>        -0.0794
      8 C7          0.1093   -2.7793   -1.5006 C.ar      1 <0>        -0.1677
      9 C8          0.0549   -2.4302   -0.1669 C.ar      1 <0>        -0.0834
     10 C9          0.0981   -4.2328   -1.8984 C.3       1 <0>         0.0459
     11 N2          1.4773   -4.7351   -1.9569 N.4       1 <0>        -0.5093
     12 C10         1.4663   -6.1520   -2.3446 C.3       1 <0>         0.0379
     13 C11         2.8812   -6.6673   -2.4046 C.ar      1 <0>        -0.1476
     14 C12         3.5968   -6.5827   -3.5848 C.ar      1 <0>        -0.0558
     15 C13         4.8938   -7.0536   -3.6430 C.ar      1 <0>        -0.1056
     16 C14         5.4793   -7.6127   -2.5145 C.ar      1 <0>         0.1169
     17 C15         4.7578   -7.6962   -1.3306 C.ar      1 <0>        -0.1570
     18 C16         3.4630   -7.2186   -1.2777 C.ar      1 <0>        -0.0564
     19 N3          6.7923   -8.0909   -2.5701 N.pl3     1 <0>        -0.6186
     20 C17         7.1254   -9.2566   -1.9287 C.cat     1 <0>         0.5480
     21 N4          6.2046   -9.9741   -1.3718 N.pl3     1 <0>        -0.7285
     22 C18         8.5642   -9.7014   -1.8729 C.3       1 <0>        -0.1680
     23 H1          1.0251    1.0874    2.1615 H         1 <0>         0.0907
     24 H2         -0.4674    1.3435    1.2261 H         1 <0>         0.0822
     25 H3         -0.5611    0.8818    2.9426 H         1 <0>         0.0916
     26 H4         -0.0700   -2.5533    2.2840 H         1 <0>         0.3313
     27 H5          0.1376    0.9461   -0.5110 H         1 <0>         0.1491
     28 H6          0.2461    0.2999   -2.8814 H         1 <0>         0.1452
     29 H7          0.2277   -2.0770   -3.5156 H         1 <0>         0.1366
     30 H8          0.0047   -3.1973    0.5917 H         1 <0>         0.1291
     31 H9         -0.4666   -4.8063   -1.1633 H         1 <0>         0.1415
     32 H10        -0.3687   -4.3379   -2.8778 H         1 <0>         0.1451
     33 H11         2.0000   -4.2043   -2.6373 H         1 <0>         0.4286
     34 H12         0.9016   -6.7255   -1.6095 H         1 <0>         0.1469
     35 H13         0.9996   -6.2571   -3.3240 H         1 <0>         0.1486
     36 H14         3.1409   -6.1481   -4.4621 H         1 <0>         0.1546
     37 H15         5.4521   -6.9875   -4.5652 H         1 <0>         0.1557
     38 H16         5.2102   -8.1304   -0.4513 H         1 <0>         0.1457
     39 H17         2.9028   -7.2795   -0.3563 H         1 <0>         0.1530
     40 H18         7.4675   -7.5982   -3.0623 H         1 <0>         0.4548
     41 H19         5.2707   -9.7375   -1.4847 H         1 <0>         0.4293
     42 H20         9.0374   -9.2895   -0.9816 H         1 <0>         0.1436
     43 H21         8.6068  -10.7899   -1.8368 H         1 <0>         0.1320
     44 H22         9.0889   -9.3464   -2.7599 H         1 <0>         0.1308
     45 H23         6.4480  -10.7489   -0.8413 H         1 <0>         0.4551
     46 H24         1.9094   -4.6379   -1.0503 H         1 <0>         0.4270
@<TRIPOS>BOND
     1    1    2 1
     2    1   23 1
     3    1   24 1
     4    1   25 1
     5    2    3 2
     6    2    4 1
     7    3   26 1
     8    4    9 ar
     9    4    5 ar
    10    5    6 ar
    11    5   27 1
    12    6    7 ar
    13    6   28 1
    14    7    8 ar
    15    7   29 1
    16    8    9 ar
    17    8   10 1
    18    9   30 1
    19   10   11 1
    20   10   31 1
    21   10   32 1
    22   11   12 1
    23   11   33 1
    24   11   46 1
    25   12   13 1
    26   12   34 1
    27   12   35 1
    28   13   18 ar
    29   13   14 ar
    30   14   15 ar
    31   14   36 1
    32   15   16 ar
    33   15   37 1
    34   16   17 ar
    35   16   19 1
    36   17   18 ar
    37   17   38 1
    38   18   39 1
    39   19   20 1
    40   19   40 1
    41   20   21 2
    42   20   22 1
    43   21   41 1
    44   21   45 1
    45   22   42 1
    46   22   43 1
    47   22   44 1
@<TRIPOS>MOLECULE
CHEMBL1159758
   34    34     0     0     0
SMALL
USER_CHARGES

@<TRIPOS>ATOM
      1 C1         -0.0187    1.5258    0.0104 C.3       1 <0>        -0.1624
      2 C2          1.3165    0.7789   -0.0063 C.3       1 <0>        -0.1689
      3 C3          0.0021   -0.0041    0.0020 C.3       1 <0>         0.0309
      4 N1         -0.3911   -0.6791   -1.2373 N.pl3     1 <0>        -0.6651
      5 C4         -0.8867   -1.9607   -1.1946 C.cat     1 <0>         0.7387
      6 N2         -1.0068   -2.5753   -0.0514 N.pl3     1 <0>        -0.7716
      7 N3         -1.2557   -2.5942   -2.3577 N.pl3     1 <0>        -0.7002
      8 C5         -1.7838   -3.9599   -2.3122 C.3       1 <0>         0.0943
      9 C6         -2.1144   -4.4265   -3.7313 C.3       1 <0>        -0.1463
     10 C7         -2.6660   -5.8528   -3.6837 C.3       1 <0>        -0.1249
     11 C8         -2.9966   -6.3193   -5.1029 C.3       1 <0>        -0.0510
     12 H1         -2.1143   -6.2154   -5.7343 H         1 <0>         0.1369
     13 C9         -3.4235   -7.7642   -5.0700 C.2       1 <0>         0.4859
     14 O1         -4.5857   -8.0617   -5.2877 O.co2     1 <0>        -0.6645
     15 O2         -2.6066   -8.6358   -4.8258 O.co2     1 <0>        -0.6296
     16 N4         -4.0872   -5.4988   -5.6465 N.4       1 <0>        -0.6148
     17 H2         -0.3072    2.0201    0.9381 H         1 <0>         0.1230
     18 H3         -0.3248    2.0300   -0.9061 H         1 <0>         0.1117
     19 H4          1.8888    0.7918   -0.9339 H         1 <0>         0.1114
     20 H5          1.9064    0.7818    0.9103 H         1 <0>         0.1218
     21 H6         -0.2728   -0.5162    0.9241 H         1 <0>         0.1426
     22 H7         -0.3017   -0.2218   -2.0881 H         1 <0>         0.4352
     23 H8         -1.3565   -3.4795   -0.0213 H         1 <0>         0.4409
     24 H9         -1.1663   -2.1369   -3.2084 H         1 <0>         0.4338
     25 H10        -1.0374   -4.6238   -1.8761 H         1 <0>         0.0996
     26 H11        -2.6877   -3.9798   -1.7033 H         1 <0>         0.0956
     27 H12        -2.8609   -3.7626   -4.1674 H         1 <0>         0.0727
     28 H13        -1.2105   -4.4066   -4.3401 H         1 <0>         0.0948
     29 H14        -1.9196   -6.5167   -3.2477 H         1 <0>         0.1189
     30 H15        -3.5699   -5.8727   -3.0749 H         1 <0>         0.0904
     31 H16        -3.8014   -4.5314   -5.6685 H         1 <0>         0.4084
     32 H17        -4.3052   -5.8065   -6.5824 H         1 <0>         0.4382
     33 H18        -0.7465   -2.1283    0.7692 H         1 <0>         0.4404
     34 H19        -4.9040   -5.5950   -5.0620 H         1 <0>         0.4332
@<TRIPOS>BOND
     1    1    3 1
     2    1    2 1
     3    1   17 1
     4    1   18 1
     5    2    3 1
     6    2   19 1
     7    2   20 1
     8    3    4 1
     9    3   21 1
    10    4    5 1
    11    4   22 1
    12    5    6 2
    13    5    7 1
    14    6   23 1
    15    6   33 1
    16    7    8 1
    17    7   24 1
    18    8    9 1
    19    8   25 1
    20    8   26 1
    21    9   10 1
    22    9   27 1
    23    9   28 1
    24   10   11 1
    25   10   29 1
    26   10   30 1
    27   11   12 1
    28   11   13 1
    29   11   16 1
    30   13   14 2
    31   13   15 1
    32   16   31 1
    33   16   32 1
    34   16   34 1
@<TRIPOS>MOLECULE
CHEMBL1087746
   60    62     0     0     0
SMALL
USER_CHARGES

@<TRIPOS>ATOM
      1 C1         -0.0184    1.5028    0.0103 C.3       1 <0>        -0.1495
      2 C2          0.0021   -0.0041    0.0020 C.ar      1 <0>         0.0814
      3 C3          0.0062   -0.7075   -1.1955 C.ar      1 <0>        -0.1726
      4 C4          0.0255   -2.0874   -1.1689 C.ar      1 <0>         0.1512
      5 N1          0.0401   -2.7422   -0.0232 N.ar      1 <0>        -0.5108
      6 C5          0.0364   -2.1079    1.1389 C.ar      1 <0>         0.4694
      7 C6          0.0230   -0.7174    1.1866 C.ar      1 <0>        -0.1947
      8 N2          0.0518   -2.8376    2.3220 N.pl3     1 <0>        -0.8074
      9 C7          0.0295   -2.8562   -2.4651 C.3       1 <0>        -0.0756
     10 C8          1.4659   -2.9882   -2.9753 C.3       1 <0>        -0.1143
     11 C9          1.9994   -1.6150   -3.4366 C.3       1 <0>        -0.0110
     12 N3          2.8287   -1.9178   -4.6314 N.4       1 <0>        -0.5136
     13 C10         2.0626   -2.9677   -5.3510 C.3       1 <0>        -0.0331
     14 C11         1.5075   -3.8781   -4.2346 C.3       1 <0>         0.0800
     15 O1          0.1927   -4.3274   -4.5685 O.3       1 <0>        -0.3789
     16 C12         0.1605   -5.6012   -5.2154 C.3       1 <0>         0.0220
     17 C13        -1.2893   -5.9798   -5.5244 C.3       1 <0>        -0.0039
     18 N4         -1.8449   -5.0337   -6.5013 N.4       1 <0>        -0.5110
     19 C14        -3.2369   -5.3972   -6.7980 C.3       1 <0>        -0.0013
     20 C15        -3.8155   -4.4119   -7.8155 C.3       1 <0>         0.0241
     21 O2         -3.1179   -4.5432   -9.0557 O.3       1 <0>        -0.3288
     22 C16        -3.5114   -3.7334  -10.0737 C.ar      1 <0>         0.1362
     23 C17        -4.5442   -2.8269   -9.8808 C.ar      1 <0>        -0.2157
     24 C18        -4.9434   -2.0043  -10.9162 C.ar      1 <0>        -0.0446
     25 C19        -4.3152   -2.0828  -12.1452 C.ar      1 <0>        -0.1703
     26 C20        -3.2842   -2.9863  -12.3413 C.ar      1 <0>         0.1498
     27 C21        -2.8776   -3.8080  -11.3048 C.ar      1 <0>        -0.1830
     28 F1         -2.6718   -3.0618  -13.5432 F         1 <0>        -0.1207
     29 H1          1.0042    1.8801    0.0026 H         1 <0>         0.1115
     30 H2         -0.5455    1.8639   -0.8728 H         1 <0>         0.0975
     31 H3         -0.5286    1.8543    0.9071 H         1 <0>         0.1019
     32 H4         -0.0061   -0.1802   -2.1379 H         1 <0>         0.1746
     33 H5          0.0246   -0.2022    2.1358 H         1 <0>         0.1870
     34 H6          0.0651   -3.8071    2.2937 H         1 <0>         0.4254
     35 H7          0.0491   -2.3773    3.1758 H         1 <0>         0.4483
     36 H8         -0.3902   -3.8485   -2.3002 H         1 <0>         0.1190
     37 H9         -0.5712   -2.3258   -3.2040 H         1 <0>         0.1291
     38 H10         2.1067   -3.4031   -2.1972 H         1 <0>         0.1275
     39 H11         1.1731   -0.9566   -3.7044 H         1 <0>         0.1457
     40 H12         2.6096   -1.1621   -2.6552 H         1 <0>         0.1496
     41 H13         2.9294   -1.0963   -5.2086 H         1 <0>         0.4490
     42 H14         1.2461   -2.5210   -5.9184 H         1 <0>         0.1468
     43 H15         2.7204   -3.5333   -6.0109 H         1 <0>         0.1516
     44 H16         2.1701   -4.7288   -4.0754 H         1 <0>         0.1223
     45 H17         0.7289   -5.5516   -6.1441 H         1 <0>         0.0905
     46 H18         0.6004   -6.3528   -4.5599 H         1 <0>         0.1146
     47 H19        -1.3215   -6.9884   -5.9365 H         1 <0>         0.1588
     48 H20        -1.8778   -5.9429   -4.6077 H         1 <0>         0.1450
     49 H21        -1.8151   -4.1001   -6.1198 H         1 <0>         0.4269
     50 H22        -3.2691   -6.4058   -7.2101 H         1 <0>         0.1504
     51 H23        -3.8254   -5.3603   -5.8813 H         1 <0>         0.1553
     52 H24        -4.8730   -4.6271   -7.9689 H         1 <0>         0.1177
     53 H25        -3.7024   -3.3945   -7.4409 H         1 <0>         0.0875
     54 H26        -5.0361   -2.7647   -8.9213 H         1 <0>         0.1336
     55 H27        -5.7475   -1.2992  -10.7655 H         1 <0>         0.1459
     56 H28        -4.6291   -1.4390  -12.9535 H         1 <0>         0.1493
     57 H29        -2.0704   -4.5095  -11.4557 H         1 <0>         0.1457
     58 H30         0.0536   -3.7120   -0.0328 H         1 <0>         0.4389
     59 H31         3.7330   -2.2688   -4.3536 H         1 <0>         0.4432
     60 H32        -1.3001   -5.0679   -7.3499 H         1 <0>         0.4364
@<TRIPOS>BOND
     1    1    2 1
     2    1   29 1
     3    1   30 1
     4    1   31 1
     5    2    7 ar
     6    2    3 ar
     7    3    4 ar
     8    3   32 1
     9    4    5 ar
    10    4    9 1
    11    5    6 ar
    12    5   58 1
    13    6    7 ar
    14    6    8 1
    15    7   33 1
    16    8   34 1
    17    8   35 1
    18    9   10 1
    19    9   36 1
    20    9   37 1
    21   10   14 1
    22   10   11 1
    23   10   38 1
    24   11   12 1
    25   11   39 1
    26   11   40 1
    27   12   13 1
    28   12   41 1
    29   12   59 1
    30   13   14 1
    31   13   42 1
    32   13   43 1
    33   14   15 1
    34   14   44 1
    35   15   16 1
    36   16   17 1
    37   16   45 1
    38   16   46 1
    39   17   18 1
    40   17   47 1
    41   17   48 1
    42   18   19 1
    43   18   49 1
    44   18   60 1
    45   19   20 1
    46   19   50 1
    47   19   51 1
    48   20   21 1
    49   20   52 1
    50   20   53 1
    51   21   22 1
    52   22   27 ar
    53   22   23 ar
    54   23   24 ar
    55   23   54 1
    56   24   25 ar
    57   24   55 1
    58   25   26 ar
    59   25   56 1
    60   26   27 ar
    61   26   28 1
    62   27   57 1
@<TRIPOS>MOLECULE
CHEMBL1087746__1
   60    62     0     0     0
SMALL
USER_CHARGES

@<TRIPOS>ATOM
      1 C1         -0.0184    1.5028    0.0103 C.3       1 <0>        -0.1505
      2 C2          0.0021   -0.0041    0.0020 C.ar      1 <0>         0.0836
      3 C3          0.0062   -0.7075   -1.1955 C.ar      1 <0>        -0.1676
      4 C4          0.0255   -2.0874   -1.1689 C.ar      1 <0>         0.1525
      5 N1          0.0401   -2.7422   -0.0232 N.ar      1 <0>        -0.5107
      6 C5          0.0364   -2.1079    1.1389 C.ar      1 <0>         0.4684
      7 C6          0.0230   -0.7174    1.1866 C.ar      1 <0>        -0.1938
      8 N2          0.0518   -2.8376    2.3220 N.pl3     1 <0>        -0.8094
      9 C7          0.0295   -2.8562   -2.4651 C.3       1 <0>        -0.0914
     10 C8          1.4659   -2.9882   -2.9753 C.3       1 <0>        -0.1103
     11 C9          1.9994   -1.6150   -3.4366 C.3       1 <0>        -0.0101
     12 N3          2.8287   -1.9178   -4.6314 N.4       1 <0>        -0.5152
     13 C10         2.0626   -2.9677   -5.3510 C.3       1 <0>        -0.0284
     14 C11         1.5075   -3.8781   -4.2346 C.3       1 <0>         0.0732
     15 O1          2.3761   -4.9934   -4.0258 O.3       1 <0>        -0.3883
     16 C12         2.0052   -6.1639   -4.7569 C.3       1 <0>         0.0229
     17 C13         2.9994   -7.2879   -4.4585 C.3       1 <0>        -0.0050
     18 N4          2.9002   -7.6664   -3.0426 N.4       1 <0>        -0.5101
     19 C14         3.8547   -8.7456   -2.7561 C.3       1 <0>        -0.0020
     20 C15         3.7513   -9.1398   -1.2813 C.3       1 <0>         0.0247
     21 O2          2.4611   -9.6989   -1.0271 O.3       1 <0>        -0.3286
     22 C16         2.2038  -10.1036    0.2445 C.ar      1 <0>         0.1368
     23 C17         3.1716   -9.9601    1.2285 C.ar      1 <0>        -0.2166
     24 C18         2.9091  -10.3719    2.5206 C.ar      1 <0>        -0.0448
     25 C19         1.6827  -10.9272    2.8352 C.ar      1 <0>        -0.1714
     26 C20         0.7145  -11.0720    1.8559 C.ar      1 <0>         0.1494
     27 C21         0.9717  -10.6554    0.5615 C.ar      1 <0>        -0.1839
     28 F1         -0.4832  -11.6152    2.1652 F         1 <0>        -0.1206
     29 H1          1.0042    1.8801    0.0026 H         1 <0>         0.1119
     30 H2         -0.5455    1.8639   -0.8728 H         1 <0>         0.0996
     31 H3         -0.5286    1.8543    0.9071 H         1 <0>         0.1025
     32 H4         -0.0061   -0.1802   -2.1379 H         1 <0>         0.1777
     33 H5          0.0246   -0.2022    2.1358 H         1 <0>         0.1874
     34 H6          0.0651   -3.8071    2.2937 H         1 <0>         0.4235
     35 H7          0.0491   -2.3773    3.1758 H         1 <0>         0.4483
     36 H8         -0.3902   -3.8485   -2.3002 H         1 <0>         0.1172
     37 H9         -0.5712   -2.3258   -3.2040 H         1 <0>         0.1360
     38 H10         2.1067   -3.4031   -2.1972 H         1 <0>         0.1258
     39 H11         1.1731   -0.9566   -3.7044 H         1 <0>         0.1484
     40 H12         2.6096   -1.1621   -2.6552 H         1 <0>         0.1484
     41 H13         2.9294   -1.0963   -5.2086 H         1 <0>         0.4481
     42 H14         1.2461   -2.5210   -5.9184 H         1 <0>         0.1571
     43 H15         2.7204   -3.5333   -6.0109 H         1 <0>         0.1500
     44 H16         0.5046   -4.2208   -4.4893 H         1 <0>         0.1295
     45 H17         1.0041   -6.4759   -4.4595 H         1 <0>         0.0918
     46 H18         2.0152   -5.9439   -5.8244 H         1 <0>         0.1130
     47 H19         2.7694   -8.1516   -5.0824 H         1 <0>         0.1594
     48 H20         4.0114   -6.9442   -4.6726 H         1 <0>         0.1464
     49 H21         3.1131   -6.8669   -2.4650 H         1 <0>         0.4260
     50 H22         3.6246   -9.6093   -3.3800 H         1 <0>         0.1513
     51 H23         4.8667   -8.4019   -2.9702 H         1 <0>         0.1568
     52 H24         4.5193   -9.8771   -1.0476 H         1 <0>         0.1186
     53 H25         3.8939   -8.2567   -0.6584 H         1 <0>         0.0861
     54 H26         4.1302   -9.5269    0.9841 H         1 <0>         0.1341
     55 H27         3.6629  -10.2603    3.2860 H         1 <0>         0.1460
     56 H28         1.4796  -11.2488    3.8460 H         1 <0>         0.1492
     57 H29         0.2153  -10.7636   -0.2017 H         1 <0>         0.1460
     58 H30         0.0536   -3.7120   -0.0328 H         1 <0>         0.4366
     59 H31         3.7330   -2.2688   -4.3536 H         1 <0>         0.4391
     60 H32         1.9634   -7.9845   -2.8443 H         1 <0>         0.4350
@<TRIPOS>BOND
     1    1    2 1
     2    1   29 1
     3    1   30 1
     4    1   31 1
     5    2    7 ar
     6    2    3 ar
     7    3    4 ar
     8    3   32 1
     9    4    5 ar
    10    4    9 1
    11    5    6 ar
    12    5   58 1
    13    6    7 ar
    14    6    8 1
    15    7   33 1
    16    8   34 1
    17    8   35 1
    18    9   10 1
    19    9   36 1
    20    9   37 1
    21   10   14 1
    22   10   11 1
    23   10   38 1
    24   11   12 1
    25   11   39 1
    26   11   40 1
    27   12   13 1
    28   12   41 1
    29   12   59 1
    30   13   14 1
    31   13   42 1
    32   13   43 1
    33   14   15 1
    34   14   44 1
    35   15   16 1
    36   16   17 1
    37   16   45 1
    38   16   46 1
    39   17   18 1
    40   17   47 1
    41   17   48 1
    42   18   19 1
    43   18   49 1
    44   18   60 1
    45   19   20 1
    46   19   50 1
    47   19   51 1
    48   20   21 1
    49   20   52 1
    50   20   53 1
    51   21   22 1
    52   22   27 ar
    53   22   23 ar
    54   23   24 ar
    55   23   54 1
    56   24   25 ar
    57   24   55 1
    58   25   26 ar
    59   25   56 1
    60   26   27 ar
    61   26   28 1
    62   27   57 1
@<TRIPOS>MOLECULE
CHEMBL1087746__2
   60    62     0     0     0
SMALL
USER_CHARGES

@<TRIPOS>ATOM
      1 C1         -0.0184    1.5028    0.0103 C.3       1 <0>        -0.1494
      2 C2          0.0021   -0.0041    0.0020 C.ar      1 <0>         0.0816
      3 C3          0.0062   -0.7075   -1.1955 C.ar      1 <0>        -0.1524
      4 C4          0.0255   -2.0874   -1.1689 C.ar      1 <0>         0.1454
      5 N1          0.0401   -2.7422   -0.0232 N.ar      1 <0>        -0.5158
      6 C5          0.0364   -2.1079    1.1389 C.ar      1 <0>         0.4671
      7 C6          0.0230   -0.7174    1.1866 C.ar      1 <0>        -0.1940
      8 N2          0.0518   -2.8376    2.3220 N.pl3     1 <0>        -0.8096
      9 C7          0.0295   -2.8562   -2.4651 C.3       1 <0>        -0.0854
     10 C8          1.4659   -2.9882   -2.9753 C.3       1 <0>        -0.1116
     11 C9          2.2717   -3.9764   -2.0950 C.3       1 <0>        -0.0152
     12 N3          3.3465   -4.4450   -3.0069 N.4       1 <0>        -0.5109
     13 C10         2.7093   -4.6065   -4.3318 C.3       1 <0>        -0.0357
     14 C11         1.4926   -3.6631   -4.3659 C.3       1 <0>         0.0795
     15 O1          1.6553   -2.6808   -5.3909 O.3       1 <0>        -0.3793
     16 C12         1.0463   -3.0325   -6.6349 C.3       1 <0>         0.0220
     17 C13         1.2824   -1.9145   -7.6523 C.3       1 <0>        -0.0043
     18 N4          2.7193   -1.8088   -7.9391 N.4       1 <0>        -0.5112
     19 C14         2.9459   -0.7353   -8.9160 C.3       1 <0>        -0.0010
     20 C15         4.4425   -0.6252   -9.2147 C.3       1 <0>         0.0239
     21 O2          4.8893   -1.8212   -9.8567 O.3       1 <0>        -0.3291
     22 C16         6.2046   -1.8868  -10.1923 C.ar      1 <0>         0.1364
     23 C17         7.0489   -0.8239   -9.9042 C.ar      1 <0>        -0.2156
     24 C18         8.3857   -0.8916  -10.2458 C.ar      1 <0>        -0.0445
     25 C19         8.8840   -2.0175  -10.8746 C.ar      1 <0>        -0.1706
     26 C20         8.0443   -3.0801  -11.1636 C.ar      1 <0>         0.1494
     27 C21         6.7058   -3.0183  -10.8179 C.ar      1 <0>        -0.1834
     28 F1          8.5331   -4.1792  -11.7786 F         1 <0>        -0.1210
     29 H1          1.0042    1.8801    0.0026 H         1 <0>         0.1114
     30 H2         -0.5455    1.8639   -0.8728 H         1 <0>         0.0988
     31 H3         -0.5286    1.8543    0.9071 H         1 <0>         0.1017
     32 H4         -0.0061   -0.1802   -2.1379 H         1 <0>         0.1798
     33 H5          0.0246   -0.2022    2.1358 H         1 <0>         0.1869
     34 H6          0.0651   -3.8071    2.2937 H         1 <0>         0.4241
     35 H7          0.0491   -2.3773    3.1758 H         1 <0>         0.4483
     36 H8         -0.3902   -3.8485   -2.3002 H         1 <0>         0.1123
     37 H9         -0.5712   -2.3258   -3.2040 H         1 <0>         0.1406
     38 H10         1.9525   -2.0135   -3.0102 H         1 <0>         0.1368
     39 H11         2.6960   -3.4643   -1.2314 H         1 <0>         0.1447
     40 H12         1.6444   -4.8100   -1.7794 H         1 <0>         0.1443
     41 H13         4.0842   -3.7585   -3.0569 H         1 <0>         0.4400
     42 H14         3.4131   -4.3334   -5.1180 H         1 <0>         0.1450
     43 H15         2.3830   -5.6381   -4.4637 H         1 <0>         0.1532
     44 H16         0.5771   -4.2321   -4.5279 H         1 <0>         0.1256
     45 H17         1.4850   -3.9591   -7.0050 H         1 <0>         0.0886
     46 H18        -0.0250   -3.1705   -6.4888 H         1 <0>         0.1150
     47 H19         0.7440   -2.1410   -8.5726 H         1 <0>         0.1587
     48 H20         0.9229   -0.9699   -7.2442 H         1 <0>         0.1473
     49 H21         3.2177   -1.5990   -7.0873 H         1 <0>         0.4271
     50 H22         2.4075   -0.9619   -9.8363 H         1 <0>         0.1503
     51 H23         2.5865    0.2093   -8.5079 H         1 <0>         0.1565
     52 H24         4.6204    0.2273   -9.8703 H         1 <0>         0.1180
     53 H25         4.9899   -0.4870   -8.2823 H         1 <0>         0.0875
     54 H26         6.6609    0.0564   -9.4133 H         1 <0>         0.1341
     55 H27         9.0422   -0.0640  -10.0216 H         1 <0>         0.1460
     56 H28         9.9293   -2.0682  -11.1411 H         1 <0>         0.1492
     57 H29         6.0515   -3.8487  -11.0387 H         1 <0>         0.1456
     58 H30         0.0536   -3.7120   -0.0328 H         1 <0>         0.4349
     59 H31         3.7132   -5.3290   -2.6871 H         1 <0>         0.4476
     60 H32         3.0521   -2.6832   -8.3170 H         1 <0>         0.4350
@<TRIPOS>BOND
     1    1    2 1
     2    1   29 1
     3    1   30 1
     4    1   31 1
     5    2    7 ar
     6    2    3 ar
     7    3    4 ar
     8    3   32 1
     9    4    5 ar
    10    4    9 1
    11    5    6 ar
    12    5   58 1
    13    6    7 ar
    14    6    8 1
    15    7   33 1
    16    8   34 1
    17    8   35 1
    18    9   10 1
    19    9   36 1
    20    9   37 1
    21   10   14 1
    22   10   11 1
    23   10   38 1
    24   11   12 1
    25   11   39 1
    26   11   40 1
    27   12   13 1
    28   12   41 1
    29   12   59 1
    30   13   14 1
    31   13   42 1
    32   13   43 1
    33   14   15 1
    34   14   44 1
    35   15   16 1
    36   16   17 1
    37   16   45 1
    38   16   46 1
    39   17   18 1
    40   17   47 1
    41   17   48 1
    42   18   19 1
    43   18   49 1
    44   18   60 1
    45   19   20 1
    46   19   50 1
    47   19   51 1
    48   20   21 1
    49   20   52 1
    50   20   53 1
    51   21   22 1
    52   22   27 ar
    53   22   23 ar
    54   23   24 ar
    55   23   54 1
    56   24   25 ar
    57   24   55 1
    58   25   26 ar
    59   25   56 1
    60   26   27 ar
    61   26   28 1
    62   27   57 1
@<TRIPOS>MOLECULE
CHEMBL1087746__3
   60    62     0     0     0
SMALL
USER_CHARGES

@<TRIPOS>ATOM
      1 C1         -0.0184    1.5028    0.0103 C.3       1 <0>        -0.1509
      2 C2          0.0021   -0.0041    0.0020 C.ar      1 <0>         0.0832
      3 C3          0.0062   -0.7075   -1.1955 C.ar      1 <0>        -0.1536
      4 C4          0.0255   -2.0874   -1.1689 C.ar      1 <0>         0.1384
      5 N1          0.0401   -2.7422   -0.0232 N.ar      1 <0>        -0.5161
      6 C5          0.0364   -2.1079    1.1389 C.ar      1 <0>         0.4674
      7 C6          0.0230   -0.7174    1.1866 C.ar      1 <0>        -0.1933
      8 N2          0.0518   -2.8376    2.3220 N.pl3     1 <0>        -0.8092
      9 C7          0.0295   -2.8562   -2.4651 C.3       1 <0>        -0.0732
     10 C8          1.4659   -2.9882   -2.9753 C.3       1 <0>        -0.1161
     11 C9          2.2750   -3.9330   -2.0609 C.3       1 <0>        -0.0126
     12 N3          3.1579   -4.6862   -2.9883 N.4       1 <0>        -0.5121
     13 C10         2.2992   -4.9578   -4.1698 C.3       1 <0>        -0.0328
     14 C11         1.4818   -3.6624   -4.3626 C.3       1 <0>         0.0808
     15 O1          0.1505   -3.9729   -4.7789 O.3       1 <0>        -0.3799
     16 C12        -0.0358   -3.9498   -6.1955 C.3       1 <0>         0.0221
     17 C13        -1.4896   -4.2950   -6.5244 C.3       1 <0>        -0.0048
     18 N4         -2.3730   -3.2454   -5.9990 N.4       1 <0>        -0.5109
     19 C14        -3.7689   -3.5769   -6.3148 C.3       1 <0>        -0.0024
     20 C15        -4.6890   -2.4838   -5.7676 C.3       1 <0>         0.0248
     21 O2         -4.4282   -1.2558   -6.4505 O.3       1 <0>        -0.3278
     22 C16        -5.1661   -0.1759   -6.0814 C.ar      1 <0>         0.1370
     23 C17        -6.1177   -0.2947   -5.0784 C.ar      1 <0>        -0.2168
     24 C18        -6.8672    0.8036   -4.7041 C.ar      1 <0>        -0.0454
     25 C19        -6.6706    2.0218   -5.3276 C.ar      1 <0>        -0.1709
     26 C20        -5.7219    2.1440   -6.3289 C.ar      1 <0>         0.1504
     27 C21        -4.9651    1.0474   -6.7028 C.ar      1 <0>        -0.1824
     28 F1         -5.5316    3.3351   -6.9374 F         1 <0>        -0.1203
     29 H1          1.0042    1.8801    0.0026 H         1 <0>         0.1139
     30 H2         -0.5455    1.8639   -0.8728 H         1 <0>         0.0988
     31 H3         -0.5286    1.8543    0.9071 H         1 <0>         0.1019
     32 H4         -0.0061   -0.1802   -2.1379 H         1 <0>         0.1795
     33 H5          0.0246   -0.2022    2.1358 H         1 <0>         0.1874
     34 H6          0.0651   -3.8071    2.2937 H         1 <0>         0.4238
     35 H7          0.0491   -2.3773    3.1758 H         1 <0>         0.4488
     36 H8         -0.3902   -3.8485   -2.3002 H         1 <0>         0.1111
     37 H9         -0.5712   -2.3258   -3.2040 H         1 <0>         0.1304
     38 H10         1.9409   -2.0084   -3.0250 H         1 <0>         0.1386
     39 H11         2.8706   -3.3579   -1.3519 H         1 <0>         0.1467
     40 H12         1.6079   -4.6147   -1.5332 H         1 <0>         0.1326
     41 H13         3.9537   -4.1248   -3.2520 H         1 <0>         0.4446
     42 H14         2.9131   -5.1543   -5.0488 H         1 <0>         0.1537
     43 H15         1.6359   -5.7999   -3.9722 H         1 <0>         0.1505
     44 H16         1.9662   -3.0143   -5.0930 H         1 <0>         0.1239
     45 H17         0.1965   -2.9553   -6.5764 H         1 <0>         0.0944
     46 H18         0.6254   -4.6807   -6.6609 H         1 <0>         0.1128
     47 H19        -1.6110   -4.3646   -7.6054 H         1 <0>         0.1598
     48 H20        -1.7485   -5.2502   -6.0675 H         1 <0>         0.1466
     49 H21        -2.2607   -3.1810   -4.9984 H         1 <0>         0.4237
     50 H22        -3.8902   -3.6465   -7.3958 H         1 <0>         0.1517
     51 H23        -4.0278   -4.5321   -5.8579 H         1 <0>         0.1561
     52 H24        -5.7285   -2.7723   -5.9232 H         1 <0>         0.1180
     53 H25        -4.5038   -2.3530   -4.7015 H         1 <0>         0.0856
     54 H26        -6.2725   -1.2457   -4.5907 H         1 <0>         0.1330
     55 H27        -7.6079    0.7105   -3.9236 H         1 <0>         0.1451
     56 H28        -7.2580    2.8791   -5.0336 H         1 <0>         0.1490
     57 H29        -4.2217    1.1432   -7.4803 H         1 <0>         0.1466
     58 H30         0.0536   -3.7120   -0.0328 H         1 <0>         0.4335
     59 H31         3.4589   -5.5510   -2.5646 H         1 <0>         0.4486
     60 H32        -2.1334   -2.3613   -6.4220 H         1 <0>         0.4369
@<TRIPOS>BOND
     1    1    2 1
     2    1   29 1
     3    1   30 1
     4    1   31 1
     5    2    7 ar
     6    2    3 ar
     7    3    4 ar
     8    3   32 1
     9    4    5 ar
    10    4    9 1
    11    5    6 ar
    12    5   58 1
    13    6    7 ar
    14    6    8 1
    15    7   33 1
    16    8   34 1
    17    8   35 1
    18    9   10 1
    19    9   36 1
    20    9   37 1
    21   10   14 1
    22   10   11 1
    23   10   38 1
    24   11   12 1
    25   11   39 1
    26   11   40 1
    27   12   13 1
    28   12   41 1
    29   12   59 1
    30   13   14 1
    31   13   42 1
    32   13   43 1
    33   14   15 1
    34   14   44 1
    35   15   16 1
    36   16   17 1
    37   16   45 1
    38   16   46 1
    39   17   18 1
    40   17   47 1
    41   17   48 1
    42   18   19 1
    43   18   49 1
    44   18   60 1
    45   19   20 1
    46   19   50 1
    47   19   51 1
    48   20   21 1
    49   20   52 1
    50   20   53 1
    51   21   22 1
    52   22   27 ar
    53   22   23 ar
    54   23   24 ar
    55   23   54 1
    56   24   25 ar
    57   24   55 1
    58   25   26 ar
    59   25   56 1
    60   26   27 ar
    61   26   28 1
    62   27   57 1
@<TRIPOS>MOLECULE
CHEMBL491897
   42    45     0     0     0
SMALL
USER_CHARGES

@<TRIPOS>ATOM
      1 C1          0.5521    0.0935   -0.9498 C.ar      1 <0>        -0.0938
      2 C2          1.6910    0.8695   -1.0430 C.ar      1 <0>        -0.0832
      3 C3          2.3804    1.2301    0.1075 C.ar      1 <0>         0.1676
      4 C4          1.9221    0.8090    1.3491 C.ar      1 <0>        -0.0950
      5 C5          0.7820    0.0328    1.4360 C.ar      1 <0>        -0.0226
      6 C6          0.0976   -0.3246    0.2870 C.ar      1 <0>        -0.1024
      7 Cl1         0.2077   -0.4945    2.9871 Cl        1 <0>        -0.0701
      8 N1          3.5340    2.0154    0.0158 N.am      1 <0>        -0.5614
      9 C7          4.8551    1.3922    0.1280 C.3       1 <0>         0.1528
     10 C8          5.3866    1.0900   -1.2494 C.2       1 <0>        -0.0225
     11 C9          6.2029    1.9666   -1.8848 C.2       1 <0>        -0.1683
     12 C10         6.6944    1.6736   -3.1750 C.2       1 <0>         0.5361
     13 O1          7.4269    2.4756   -3.7281 O.2       1 <0>        -0.5271
     14 N2          6.3752    0.5317   -3.8090 N.am      1 <0>        -0.6290
     15 H1          6.7304    0.3615   -4.6954 H         1 <0>         0.4186
     16 C11         5.5500   -0.4016   -3.2166 C.ar      1 <0>         0.1538
     17 C12         5.0376   -0.1593   -1.9285 C.ar      1 <0>        -0.0902
     18 C13         4.2043   -1.1046   -1.3210 C.ar      1 <0>        -0.0645
     19 C14         3.8969   -2.2610   -1.9803 C.ar      1 <0>        -0.1166
     20 C15         4.4038   -2.5076   -3.2487 C.ar      1 <0>        -0.0993
     21 C16         5.2191   -1.5850   -3.8725 C.ar      1 <0>         0.0559
     22 F1          5.7060   -1.8354   -5.1075 F         1 <0>        -0.1321
     23 C17         3.4304    3.3455   -0.1756 C.2       1 <0>         0.6141
     24 O2          4.4314    4.0151   -0.3467 O.2       1 <0>        -0.5205
     25 C18         2.1051    3.9882   -0.1777 C.2       1 <0>        -0.0694
     26 C19         1.8491    5.3072   -0.4157 C.2       1 <0>         0.0443
     27 N3          0.5029    5.4689   -0.3207 N.pl3     1 <0>        -0.5660
     28 H2          0.0161    6.2994   -0.4398 H         1 <0>         0.4274
     29 C20        -0.0377    4.2572   -0.0289 C.2       1 <0>         0.1909
     30 N4          0.9159    3.3749    0.0508 N.2       1 <0>        -0.4468
     31 H3          0.0134   -0.1832   -1.8441 H         1 <0>         0.1309
     32 H4          2.0454    1.1953   -2.0097 H         1 <0>         0.1184
     33 H5          2.4562    1.0876    2.2455 H         1 <0>         0.1303
     34 H6         -0.7931   -0.9313    0.3570 H         1 <0>         0.1318
     35 H7          5.5359    2.0732    0.6388 H         1 <0>         0.1099
     36 H8          4.7729    0.4661    0.6969 H         1 <0>         0.1029
     37 H9          6.4777    2.8927   -1.4019 H         1 <0>         0.1663
     38 H10         3.8058   -0.9211   -0.3342 H         1 <0>         0.1377
     39 H11         3.2538   -2.9902   -1.5101 H         1 <0>         0.1415
     40 H12         4.1509   -3.4269   -3.7560 H         1 <0>         0.1458
     41 H13         2.5760    6.0747   -0.6366 H         1 <0>         0.1907
     42 H14        -1.0899    4.0573    0.1102 H         1 <0>         0.2129
@<TRIPOS>BOND
     1    1    6 ar
     2    1    2 ar
     3    1   31 1
     4    2    3 ar
     5    2   32 1
     6    3    4 ar
     7    3    8 1
     8    4    5 ar
     9    4   33 1
    10    5    6 ar
    11    5    7 1
    12    6   34 1
    13    8    9 1
    14    8   23 am
    15    9   10 1
    16    9   35 1
    17    9   36 1
    18   10   17 1
    19   10   11 2
    20   11   12 1
    21   11   37 1
    22   12   13 2
    23   12   14 am
    24   14   15 1
    25   14   16 1
    26   16   21 ar
    27   16   17 ar
    28   17   18 ar
    29   18   19 ar
    30   18   38 1
    31   19   20 ar
    32   19   39 1
    33   20   21 ar
    34   20   40 1
    35   21   22 1
    36   23   24 2
    37   23   25 1
    38   25   30 1
    39   25   26 2
    40   26   27 1
    41   26   41 1
    42   27   28 1
    43   27   29 1
    44   29   30 2
    45   29   42 1
@<TRIPOS>MOLECULE
CHEMBL491897__1
   42    45     0     0     0
SMALL
USER_CHARGES

@<TRIPOS>ATOM
      1 C1          0.7427   -0.2084   -0.6225 C.ar      1 <0>        -0.0965
      2 C2          1.8226    0.6197   -0.8595 C.ar      1 <0>        -0.1136
      3 C3          2.4572    1.2524    0.2014 C.ar      1 <0>         0.1180
      4 C4          2.0038    1.0503    1.4986 C.ar      1 <0>        -0.1124
      5 C5          0.9229    0.2207    1.7295 C.ar      1 <0>        -0.0303
      6 C6          0.2929   -0.4082    0.6694 C.ar      1 <0>        -0.0987
      7 Cl1         0.3548   -0.0330    3.3502 Cl        1 <0>        -0.0449
      8 N1          3.5509    2.0908   -0.0358 N.am      1 <0>        -0.5703
      9 C7          4.9143    1.5712    0.0957 C.3       1 <0>         0.1552
     10 C8          5.4149    1.1266   -1.2544 C.2       1 <0>        -0.0291
     11 C9          6.1536    1.9596   -2.0282 C.2       1 <0>        -0.1623
     12 C10         6.6168    1.5330   -3.2913 C.2       1 <0>         0.5351
     13 O1          7.2794    2.2979   -3.9707 O.2       1 <0>        -0.5219
     14 N2          6.3458    0.3036   -3.7636 N.am      1 <0>        -0.6287
     15 H1          6.6797    0.0423   -4.6361 H         1 <0>         0.4197
     16 C11         5.6002   -0.5915   -3.0249 C.ar      1 <0>         0.1553
     17 C12         5.1192   -0.2165   -1.7567 C.ar      1 <0>        -0.0912
     18 C13         4.3668   -1.1221   -1.0013 C.ar      1 <0>        -0.0693
     19 C14         4.1076   -2.3683   -1.4974 C.ar      1 <0>        -0.1172
     20 C15         4.5840   -2.7454   -2.7453 C.ar      1 <0>        -0.0992
     21 C16         5.3194   -1.8654   -3.5133 C.ar      1 <0>         0.0584
     22 F1          5.7773   -2.2431   -4.7269 F         1 <0>        -0.1305
     23 C17         3.3507    3.3770   -0.3854 C.2       1 <0>         0.6070
     24 O2          4.3001    4.0897   -0.6529 O.2       1 <0>        -0.4973
     25 C18         1.9880    3.9179   -0.4434 C.2       1 <0>        -0.1002
     26 C19         1.6280    5.2026   -0.7403 C.2       1 <0>         0.0828
     27 N3          0.2979    5.2758   -0.6856 N.2       1 <0>        -0.4959
     28 H2          0.7302    2.2904    0.0170 H         1 <0>         0.4201
     29 C20        -0.1954    4.1055   -0.3703 C.2       1 <0>         0.2203
     30 N4          0.8127    3.2287   -0.2147 N.pl3     1 <0>        -0.5562
     31 H3          0.2463   -0.6970   -1.4479 H         1 <0>         0.1483
     32 H4          2.1733    0.7747   -1.8692 H         1 <0>         0.1390
     33 H5          2.4955    1.5406    2.3258 H         1 <0>         0.1477
     34 H6         -0.5516   -1.0561    0.8519 H         1 <0>         0.1478
     35 H7          5.5655    2.3539    0.4849 H         1 <0>         0.1145
     36 H8          4.9156    0.7235    0.7809 H         1 <0>         0.1041
     37 H9          6.3882    2.9536   -1.6768 H         1 <0>         0.1675
     38 H10         3.9924   -0.8372   -0.0291 H         1 <0>         0.1356
     39 H11         3.5269   -3.0666   -0.9130 H         1 <0>         0.1410
     40 H12         4.3701   -3.7344   -3.1227 H         1 <0>         0.1467
     41 H13         2.3009    6.0137   -0.9764 H         1 <0>         0.1861
     42 H14        -1.2452    3.8788   -0.2567 H         1 <0>         0.2153
@<TRIPOS>BOND
     1    1    6 ar
     2    1    2 ar
     3    1   31 1
     4    2    3 ar
     5    2   32 1
     6    3    4 ar
     7    3    8 1
     8    4    5 ar
     9    4   33 1
    10    5    6 ar
    11    5    7 1
    12    6   34 1
    13    8    9 1
    14    8   23 am
    15    9   10 1
    16    9   35 1
    17    9   36 1
    18   10   17 1
    19   10   11 2
    20   11   12 1
    21   11   37 1
    22   12   13 2
    23   12   14 am
    24   14   15 1
    25   14   16 1
    26   16   21 ar
    27   16   17 ar
    28   17   18 ar
    29   18   19 ar
    30   18   38 1
    31   19   20 ar
    32   19   39 1
    33   20   21 ar
    34   20   40 1
    35   21   22 1
    36   23   24 2
    37   23   25 1
    38   25   26 2
    39   25   30 1
    40   26   27 1
    41   26   41 1
    42   27   29 2
    43   28   30 1
    44   29   42 1
    45   29   30 1
@<TRIPOS>MOLECULE
CHEMBL272708
   41    42     0     0     0
SMALL
USER_CHARGES

@<TRIPOS>ATOM
      1 C1         -0.0178    1.4648    0.0101 C.3       1 <0>        -0.0469
      2 N1          0.0021   -0.0041    0.0020 N.4       1 <0>        -0.3854
      3 C2         -1.3756   -0.5106    0.0035 C.3       1 <0>        -0.0024
      4 C3         -1.3615   -2.0381   -0.0867 C.3       1 <0>        -0.1452
      5 C4         -0.6051   -2.6081    1.1167 C.3       1 <0>         0.0790
      6 C5          0.8066   -2.0155    1.1472 C.3       1 <0>        -0.1424
      7 C6          0.7122   -0.4888    1.1916 C.3       1 <0>        -0.0052
      8 N2         -0.5218   -4.0698    0.9971 N.3       1 <0>        -0.5213
      9 C7         -1.8584   -4.6639    0.8612 C.3       1 <0>         0.0079
     10 C8          0.1992   -4.6511    2.1374 C.3       1 <0>         0.0735
     11 C9          0.4798   -6.1065    1.8652 C.ar      1 <0>        -0.0084
     12 C10        -0.3273   -7.0815    2.4209 C.ar      1 <0>        -0.1099
     13 C11        -0.0700   -8.4174    2.1706 C.ar      1 <0>         0.0124
     14 C12         0.9954   -8.7769    1.3641 C.ar      1 <0>        -0.1047
     15 C13         1.8016   -7.8013    0.8091 C.ar      1 <0>        -0.0391
     16 C14         1.5406   -6.4660    1.0554 C.ar      1 <0>        -0.0316
     17 N3          2.4007   -5.4214    0.4558 N.pl3     1 <0>         0.0443
     18 O1          3.3287   -5.7355   -0.2526 O.2       1 <0>        -0.1626
     19 O2          2.1753   -4.2539    0.6744 O.3       1 <0>        -0.1498
     20 Cl1        -1.0828   -9.6425    2.8685 Cl        1 <0>        -0.0259
     21 H1          1.0047    1.8421    0.0024 H         1 <0>         0.1246
     22 H2         -0.5450    1.8259   -0.8730 H         1 <0>         0.1231
     23 H3         -0.5280    1.8163    0.9069 H         1 <0>         0.1204
     24 H4         -1.8732   -0.2060    0.9241 H         1 <0>         0.1270
     25 H5         -1.9135   -0.1015   -0.8518 H         1 <0>         0.1327
     26 H6         -2.3852   -2.4123   -0.0837 H         1 <0>         0.1111
     27 H7         -0.8642   -2.3438   -1.0072 H         1 <0>         0.0992
     28 H8         -1.1305   -2.3457    2.0350 H         1 <0>         0.0591
     29 H9          1.3327   -2.3735    2.0321 H         1 <0>         0.1140
     30 H10         1.3489   -2.3207    0.2523 H         1 <0>         0.1128
     31 H11         1.7157   -0.0637    1.2136 H         1 <0>         0.1346
     32 H12         0.1701   -0.1847    2.0870 H         1 <0>         0.1252
     33 H13        -2.3433   -4.2674   -0.0309 H         1 <0>         0.0783
     34 H14        -1.7676   -5.7467    0.7744 H         1 <0>         0.0744
     35 H15        -2.4561   -4.4186    1.7391 H         1 <0>         0.0372
     36 H16         1.1403   -4.1203    2.2809 H         1 <0>         0.1217
     37 H17        -0.4099   -4.5605    3.0368 H         1 <0>         0.0581
     38 H18        -1.1585   -6.8004    3.0506 H         1 <0>         0.1549
     39 H19         1.1971   -9.8198    1.1686 H         1 <0>         0.1621
     40 H20         2.6334   -8.0817    0.1799 H         1 <0>         0.1662
     41 H21         0.4767   -0.3284   -0.8272 H         1 <0>         0.4271
@<TRIPOS>BOND
     1    1    2 1
     2    1   21 1
     3    1   22 1
     4    1   23 1
     5    2    7 1
     6    2    3 1
     7    2   41 1
     8    3    4 1
     9    3   24 1
    10    3   25 1
    11    4    5 1
    12    4   26 1
    13    4   27 1
    14    5    6 1
    15    5    8 1
    16    5   28 1
    17    6    7 1
    18    6   29 1
    19    6   30 1
    20    7   31 1
    21    7   32 1
    22    8    9 1
    23    8   10 1
    24    9   33 1
    25    9   34 1
    26    9   35 1
    27   10   11 1
    28   10   36 1
    29   10   37 1
    30   11   16 ar
    31   11   12 ar
    32   12   13 ar
    33   12   38 1
    34   13   14 ar
    35   13   20 1
    36   14   15 ar
    37   14   39 1
    38   15   16 ar
    39   15   40 1
    40   16   17 1
    41   17   18 2
    42   17   19 1
@<TRIPOS>MOLECULE
CHEMBL8281
   21    22     0     0     0
SMALL
USER_CHARGES

@<TRIPOS>ATOM
      1 C1          0.0180   -1.1779   -0.0044 C.1       1 <0>        -0.0869
      2 C2          0.0021   -0.0041    0.0020 C.1       1 <0>        -0.2739
      3 C3         -0.0179    1.4678    0.0101 C.3       1 <0>         0.2645
      4 C4         -0.8227    1.9598   -1.1970 C.3       1 <0>        -0.0600
      5 C5          0.0343    1.8381   -2.4175 C.2       1 <0>        -0.1902
      6 C6          1.4096    1.9308   -2.3976 C.2       1 <0>        -0.2002
      7 C7          2.0539    1.8101   -3.6338 C.2       1 <0>        -0.1152
      8 C8          1.2711    1.6059   -4.7168 C.2       1 <0>        -0.1979
      9 S1         -0.3667    1.5830   -4.0090 S.3       1 <0>         0.3447
     10 C9          2.0675    2.1379   -1.0725 C.cat     1 <0>         0.6135
     11 N1          1.3526    1.9579   -0.0003 N.pl3     1 <0>        -0.6219
     12 N2          3.3927    2.5081   -0.9881 N.pl3     1 <0>        -0.7859
     13 H1          0.0322   -2.2278   -0.0102 H         1 <0>         0.2314
     14 H2         -0.5079    1.8088    0.9221 H         1 <0>         0.1561
     15 H3         -1.7180    1.3492   -1.3148 H         1 <0>         0.1327
     16 H4         -1.1055    3.0020   -1.0495 H         1 <0>         0.1268
     17 H5          3.1285    1.8768   -3.7189 H         1 <0>         0.1534
     18 H6          1.5633    1.4866   -5.7497 H         1 <0>         0.2078
     19 H7          3.9124    2.6381   -1.7968 H         1 <0>         0.4428
     20 H8          3.8054    2.6387   -0.1201 H         1 <0>         0.4291
     21 H9          1.7626    2.1654    0.8539 H         1 <0>         0.4292
@<TRIPOS>BOND
     1    1    2 3
     2    1   13 1
     3    2    3 1
     4    3   11 1
     5    3    4 1
     6    3   14 1
     7    4    5 1
     8    4   15 1
     9    4   16 1
    10    5    9 1
    11    5    6 2
    12    6    7 1
    13    6   10 1
    14    7    8 2
    15    7   17 1
    16    8    9 1
    17    8   18 1
    18   10   11 2
    19   10   12 1
    20   11   21 1
    21   12   19 1
    22   12   20 1
@<TRIPOS>MOLECULE
CHEMBL8281__1
   21    22     0     0     0
SMALL
USER_CHARGES

@<TRIPOS>ATOM
      1 C1          0.0180   -1.1779   -0.0044 C.1       1 <0>        -0.0681
      2 C2          0.0021   -0.0041    0.0020 C.1       1 <0>        -0.2745
      3 C3         -0.0179    1.4678    0.0101 C.3       1 <0>         0.2679
      4 C4         -0.7995    1.9467    1.2376 C.3       1 <0>        -0.0587
      5 C5         -0.4928    3.3946    1.4575 C.2       1 <0>        -0.1969
      6 C6          0.7017    3.9848    1.1036 C.2       1 <0>        -0.1995
      7 C7          0.8273    5.3473    1.3969 C.2       1 <0>        -0.1149
      8 C8         -0.2310    5.9488    1.9848 C.2       1 <0>        -0.1967
      9 S1         -1.4028    4.6109    2.1293 S.3       1 <0>         0.3502
     10 C9          1.7265    3.1235    0.4407 C.cat     1 <0>         0.6112
     11 N1          1.3526    1.9579   -0.0003 N.pl3     1 <0>        -0.6217
     12 N2          3.0295    3.5510    0.3001 N.pl3     1 <0>        -0.7860
     13 H1          0.0322   -2.2278   -0.0102 H         1 <0>         0.2360
     14 H2         -0.5251    1.8185   -0.8886 H         1 <0>         0.1350
     15 H3         -1.8682    1.8200    1.0646 H         1 <0>         0.1347
     16 H4         -0.4980    1.3706    2.1125 H         1 <0>         0.1191
     17 H5          1.7291    5.8938    1.1637 H         1 <0>         0.1546
     18 H6         -0.3397    6.9791    2.2900 H         1 <0>         0.2085
     19 H7          3.2926    4.4229    0.6340 H         1 <0>         0.4432
     20 H8          3.6833    2.9799   -0.1327 H         1 <0>         0.4290
     21 H9          2.0367    1.3732   -0.3624 H         1 <0>         0.4277
@<TRIPOS>BOND
     1    1    2 3
     2    1   13 1
     3    2    3 1
     4    3   11 1
     5    3    4 1
     6    3   14 1
     7    4    5 1
     8    4   15 1
     9    4   16 1
    10    5    9 1
    11    5    6 2
    12    6    7 1
    13    6   10 1
    14    7    8 2
    15    7   17 1
    16    8    9 1
    17    8   18 1
    18   10   11 2
    19   10   12 1
    20   11   21 1
    21   12   19 1
    22   12   20 1
@<TRIPOS>MOLECULE
CHEMBL274405
   26    28     0     0     0
SMALL
USER_CHARGES

@<TRIPOS>ATOM
      1 C1         -0.0162    1.3409    0.0094 C.2       1 <0>        -0.2104
      2 C2          1.3313    1.7689   -0.0012 C.2       1 <0>        -0.1579
      3 C3          2.0923    0.6599   -0.0144 C.2       1 <0>        -0.0838
      4 O1          1.2819   -0.4111   -0.0124 O.3       1 <0>        -0.1730
      5 C4          0.0021   -0.0041    0.0020 C.2       1 <0>        -0.0138
      6 C5          3.5989    0.6249   -0.0294 C.3       1 <0>         0.2293
      7 C6          4.0682    0.4786   -1.4750 C.3       1 <0>        -0.0880
      8 C7          3.8238   -0.9534   -1.9226 C.2       1 <0>         0.0102
      9 C8          3.5483   -1.4122   -3.1905 C.2       1 <0>        -0.1851
     10 C9          3.3654   -2.7414   -3.3953 C.2       1 <0>        -0.1720
     11 S1          3.5616   -3.4267   -1.8692 S.3       1 <0>         0.3457
     12 C10         3.8785   -1.9555   -0.9554 C.2       1 <0>        -0.3521
     13 C11         4.1369   -1.6981    0.4524 C.cat     1 <0>         0.6492
     14 N1          4.0472   -0.4470    0.8476 N.pl3     1 <0>        -0.6256
     15 N2          4.4602   -2.7143    1.3285 N.pl3     1 <0>        -0.7859
     16 H1         -0.8920    1.9726    0.0252 H         1 <0>         0.1590
     17 H2          1.6822    2.7903    0.0004 H         1 <0>         0.1589
     18 H3         -0.8653   -0.6475    0.0072 H         1 <0>         0.2111
     19 H4          3.9715    1.5720    0.3608 H         1 <0>         0.1580
     20 H5          3.5073    1.1620   -2.1126 H         1 <0>         0.1304
     21 H6          5.1325    0.7052   -1.5388 H         1 <0>         0.1215
     22 H7          3.4778   -0.7197   -4.0163 H         1 <0>         0.1564
     23 H8          3.1442   -3.2448   -4.3248 H         1 <0>         0.2102
     24 H9          4.5199   -3.6286    1.0099 H         1 <0>         0.4418
     25 H10         4.6277   -2.5143    2.2627 H         1 <0>         0.4326
     26 H11         4.2896   -0.2295    1.7613 H         1 <0>         0.4332
@<TRIPOS>BOND
     1    1    5 2
     2    1    2 1
     3    1   16 1
     4    2    3 2
     5    2   17 1
     6    3    4 1
     7    3    6 1
     8    4    5 1
     9    5   18 1
    10    6   14 1
    11    6    7 1
    12    6   19 1
    13    7    8 1
    14    7   20 1
    15    7   21 1
    16    8   12 2
    17    8    9 1
    18    9   10 2
    19    9   22 1
    20   10   11 1
    21   10   23 1
    22   11   12 1
    23   12   13 1
    24   13   14 2
    25   13   15 1
    26   14   26 1
    27   15   24 1
    28   15   25 1
@<TRIPOS>MOLECULE
CHEMBL274405__1
   26    28     0     0     0
SMALL
USER_CHARGES

@<TRIPOS>ATOM
      1 C1         -0.0162    1.3409    0.0094 C.2       1 <0>        -0.2104
      2 C2          1.3313    1.7689   -0.0012 C.2       1 <0>        -0.1579
      3 C3          2.0923    0.6599   -0.0144 C.2       1 <0>        -0.0838
      4 O1          1.2819   -0.4111   -0.0124 O.3       1 <0>        -0.1730
      5 C4          0.0021   -0.0041    0.0020 C.2       1 <0>        -0.0138
      6 C5          3.5989    0.6249   -0.0294 C.3       1 <0>         0.2292
      7 C6          4.0966    0.4638    1.4051 C.3       1 <0>        -0.0879
      8 C7          3.8609   -0.9729    1.8426 C.2       1 <0>         0.0102
      9 C8          3.6104   -1.4447    3.1109 C.2       1 <0>        -0.1851
     10 C9          3.4314   -2.7760    3.3055 C.2       1 <0>        -0.1720
     11 S1          3.5974   -3.4455    1.7689 S.3       1 <0>         0.3457
     12 C10         3.8964   -1.9649    0.8642 C.2       1 <0>        -0.3522
     13 C11         4.1271   -1.6929   -0.5456 C.cat     1 <0>         0.6493
     14 N1          4.0297   -0.4379   -0.9260 N.pl3     1 <0>        -0.6256
     15 N2          4.4334   -2.7000   -1.4383 N.pl3     1 <0>        -0.7860
     16 H1         -0.8920    1.9726    0.0252 H         1 <0>         0.1590
     17 H2          1.6822    2.7903    0.0004 H         1 <0>         0.1589
     18 H3         -0.8653   -0.6475    0.0072 H         1 <0>         0.2111
     19 H4          3.9638    1.5761   -0.4170 H         1 <0>         0.1580
     20 H5          5.1619    0.6898    1.4502 H         1 <0>         0.1215
     21 H6          3.5484    1.1404    2.0607 H         1 <0>         0.1304
     22 H7          3.5562   -0.7608    3.9450 H         1 <0>         0.1564
     23 H8          3.2293   -3.2891    4.2341 H         1 <0>         0.2102
     24 H9          4.4997   -3.6174   -1.1304 H         1 <0>         0.4418
     25 H10         4.5825   -2.4903   -2.3735 H         1 <0>         0.4326
     26 H11         4.2541   -0.2109   -1.8420 H         1 <0>         0.4332
@<TRIPOS>BOND
     1    1    5 2
     2    1    2 1
     3    1   16 1
     4    2    3 2
     5    2   17 1
     6    3    4 1
     7    3    6 1
     8    4    5 1
     9    5   18 1
    10    6   14 1
    11    6    7 1
    12    6   19 1
    13    7    8 1
    14    7   20 1
    15    7   21 1
    16    8   12 2
    17    8    9 1
    18    9   10 2
    19    9   22 1
    20   10   11 1
    21   10   23 1
    22   11   12 1
    23   12   13 1
    24   13   14 2
    25   13   15 1
    26   14   26 1
    27   15   24 1
    28   15   25 1
@<TRIPOS>MOLECULE
CHEMBL8041
   26    28     0     0     0
SMALL
USER_CHARGES

@<TRIPOS>ATOM
      1 C1         -0.0163    1.3513    0.0095 C.2       1 <0>        -0.1663
      2 C2          1.1833    2.0380    0.0017 C.2       1 <0>        -0.1020
      3 C3          2.3426    1.3358   -0.0131 C.2       1 <0>        -0.2251
      4 S1          1.7535   -0.3495   -0.0166 S.3       1 <0>         0.0445
      5 C4          0.0021   -0.0041    0.0020 C.2       1 <0>        -0.1367
      6 C5          3.7608    1.8454   -0.0244 C.3       1 <0>         0.2308
      7 C6          4.2532    1.8833   -1.4692 C.3       1 <0>        -0.0845
      8 C7          4.5411    0.4609   -1.9218 C.2       1 <0>         0.0134
      9 C8          4.4509   -0.0614   -3.1918 C.2       1 <0>        -0.1843
     10 C9          4.7589   -1.3666   -3.4011 C.2       1 <0>        -0.1695
     11 S2          5.1865   -1.9412   -1.8767 S.3       1 <0>         0.3463
     12 C10         4.9515   -0.4580   -0.9575 C.2       1 <0>        -0.3595
     13 C11         5.0982   -0.1301    0.4517 C.cat     1 <0>         0.6440
     14 N1          4.5637    1.0033    0.8505 N.pl3     1 <0>        -0.6241
     15 N2          5.7644   -0.9652    1.3255 N.pl3     1 <0>        -0.7852
     16 H1         -0.9542    1.8866    0.0258 H         1 <0>         0.1463
     17 H2          1.1967    3.1179    0.0070 H         1 <0>         0.1431
     18 H3         -0.8275   -0.6955    0.0065 H         1 <0>         0.1945
     19 H4          3.7671    2.8617    0.3697 H         1 <0>         0.1506
     20 H5          3.4848    2.3214   -2.1062 H         1 <0>         0.1292
     21 H6          5.1647    2.4780   -1.5295 H         1 <0>         0.1193
     22 H7          4.1369    0.5624   -4.0157 H         1 <0>         0.1566
     23 H8          4.7355   -1.9122   -4.3329 H         1 <0>         0.2105
     24 H9          6.1495   -1.7956    1.0043 H         1 <0>         0.4420
     25 H10         5.8475   -0.7219    2.2608 H         1 <0>         0.4328
     26 H11         4.7104    1.2900    1.7655 H         1 <0>         0.4333
@<TRIPOS>BOND
     1    1    5 2
     2    1    2 1
     3    1   16 1
     4    2    3 2
     5    2   17 1
     6    3    4 1
     7    3    6 1
     8    4    5 1
     9    5   18 1
    10    6   14 1
    11    6    7 1
    12    6   19 1
    13    7    8 1
    14    7   20 1
    15    7   21 1
    16    8   12 2
    17    8    9 1
    18    9   10 2
    19    9   22 1
    20   10   11 1
    21   10   23 1
    22   11   12 1
    23   12   13 1
    24   13   14 2
    25   13   15 1
    26   14   26 1
    27   15   24 1
    28   15   25 1
@<TRIPOS>MOLECULE
CHEMBL8041__1
   26    28     0     0     0
SMALL
USER_CHARGES

@<TRIPOS>ATOM
      1 C1         -0.0163    1.3513    0.0095 C.2       1 <0>        -0.1694
      2 C2          1.1833    2.0380    0.0017 C.2       1 <0>        -0.0910
      3 C3          2.3426    1.3358   -0.0131 C.2       1 <0>        -0.2328
      4 S1          1.7535   -0.3495   -0.0166 S.3       1 <0>         0.0553
      5 C4          0.0021   -0.0041    0.0020 C.2       1 <0>        -0.1274
      6 C5          3.7608    1.8454   -0.0244 C.3       1 <0>         0.2343
      7 C6          4.2812    1.8687    1.4109 C.3       1 <0>        -0.0831
      8 C7          5.7859    2.0825    1.3787 C.2       1 <0>         0.0074
      9 C8          6.5755    2.7086    2.3159 C.2       1 <0>        -0.1859
     10 C9          7.9144    2.7960    2.1109 C.2       1 <0>        -0.1705
     11 S2          8.1583    2.0279    0.6319 S.3       1 <0>         0.3501
     12 C10         6.4886    1.5960    0.2776 C.2       1 <0>        -0.3601
     13 C11         5.8554    0.9164   -0.8413 C.cat     1 <0>         0.6443
     14 N1          4.5464    1.0123   -0.9231 N.pl3     1 <0>        -0.6241
     15 N2          6.5904    0.2070   -1.7694 N.pl3     1 <0>        -0.7865
     16 H1         -0.9542    1.8866    0.0258 H         1 <0>         0.1489
     17 H2          1.1967    3.1179    0.0070 H         1 <0>         0.1440
     18 H3         -0.8275   -0.6955    0.0065 H         1 <0>         0.1976
     19 H4          3.7595    2.8656   -0.4081 H         1 <0>         0.1303
     20 H5          3.8076    2.6835    1.9586 H         1 <0>         0.1305
     21 H6          4.0570    0.9191    1.8968 H         1 <0>         0.1130
     22 H7          6.1332    3.1277    3.2076 H         1 <0>         0.1582
     23 H8          8.6547    3.2535    2.7506 H         1 <0>         0.2113
     24 H9          7.5551    0.1524   -1.6849 H         1 <0>         0.4423
     25 H10         6.1422   -0.2369   -2.5063 H         1 <0>         0.4328
     26 H11         4.0853    0.5070   -1.6109 H         1 <0>         0.4303
@<TRIPOS>BOND
     1    1    5 2
     2    1    2 1
     3    1   16 1
     4    2    3 2
     5    2   17 1
     6    3    4 1
     7    3    6 1
     8    4    5 1
     9    5   18 1
    10    6   14 1
    11    6    7 1
    12    6   19 1
    13    7    8 1
    14    7   20 1
    15    7   21 1
    16    8   12 2
    17    8    9 1
    18    9   10 2
    19    9   22 1
    20   10   11 1
    21   10   23 1
    22   11   12 1
    23   12   13 1
    24   13   14 2
    25   13   15 1
    26   14   26 1
    27   15   24 1
    28   15   25 1
@<TRIPOS>MOLECULE
CHEMBL186431
   28    28     0     0     0
SMALL
USER_CHARGES

@<TRIPOS>ATOM
      1 C1          0.0910    1.5269    0.0663 C.3       1 <0>        -0.1579
      2 C2          0.1117   -0.0029    0.0579 C.3       1 <0>        -0.1288
      3 C3          0.7182   -0.4975   -1.2568 C.3       1 <0>        -0.1439
      4 C4          0.7389   -2.0227   -1.2652 C.3       1 <0>         0.1138
      5 H1         -0.2963   -2.3673   -1.0735 H         1 <0>         0.1401
      6 C5          1.1523   -2.5532   -2.6300 C.3       1 <0>        -0.1344
      7 S1          2.5744   -1.6692   -3.2948 S.3       1 <0>        -0.1734
      8 C6          3.9519   -2.0074   -2.1830 C.3       1 <0>        -0.1142
      9 C7          3.7038   -1.4402   -0.7941 C.3       1 <0>        -0.1272
     10 C8          2.8097   -2.3442    0.0043 C.cat     1 <0>         0.5369
     11 N1          1.5831   -2.5621   -0.2112 N.pl3     1 <0>        -0.5927
     12 N2          3.3782   -3.0027    1.0789 N.pl3     1 <0>        -0.8057
     13 H2          1.1090    1.9047   -0.0290 H         1 <0>         0.0578
     14 H3         -0.5098    1.8868   -0.7690 H         1 <0>         0.0646
     15 H4         -0.3411    1.8793    1.0029 H         1 <0>         0.0630
     16 H5          0.7124   -0.3627    0.8932 H         1 <0>         0.0523
     17 H6         -0.9063   -0.3806    0.1532 H         1 <0>         0.0724
     18 H7          0.1175   -0.1377   -2.0921 H         1 <0>         0.1120
     19 H8          1.7362   -0.1198   -1.3521 H         1 <0>         0.0909
     20 H9          1.3935   -3.6187   -2.5426 H         1 <0>         0.1006
     21 H10         0.3080   -2.4589   -3.3223 H         1 <0>         0.1505
     22 H11         4.1038   -3.0899   -2.1097 H         1 <0>         0.0982
     23 H12         4.8679   -1.5685   -2.5939 H         1 <0>         0.1494
     24 H13         4.6695   -1.3580   -0.2709 H         1 <0>         0.1346
     25 H14         3.2874   -0.4381   -0.8592 H         1 <0>         0.1465
     26 H15         4.3161   -2.8701    1.2880 H         1 <0>         0.4423
     27 H16         2.8392   -3.5972    1.6238 H         1 <0>         0.4246
     28 H17         1.1455   -3.1821    0.4243 H         1 <0>         0.4278
@<TRIPOS>BOND
     1    1    2 1
     2    1   13 1
     3    1   14 1
     4    1   15 1
     5    2    3 1
     6    2   16 1
     7    2   17 1
     8    3    4 1
     9    3   18 1
    10    3   19 1
    11    4    5 1
    12    4   11 1
    13    4    6 1
    14    6    7 1
    15    6   20 1
    16    6   21 1
    17    7    8 1
    18    8    9 1
    19    8   22 1
    20    8   23 1
    21    9   10 1
    22    9   24 1
    23    9   25 1
    24   10   11 2
    25   10   12 1
    26   11   28 1
    27   12   26 1
    28   12   27 1
@<TRIPOS>MOLECULE
CHEMBL6875
   31    32     0     0     0
SMALL
USER_CHARGES

@<TRIPOS>ATOM
      1 C1         -0.0167    1.3781    0.0096 C.ar      1 <0>        -0.1093
      2 C2          1.1709    2.0855    0.0021 C.ar      1 <0>        -0.1065
      3 C3          2.3773    1.4107   -0.0130 C.ar      1 <0>        -0.1084
      4 C4          2.3960    0.0285   -0.0201 C.ar      1 <0>        -0.1134
      5 C5          1.2084   -0.6789   -0.0117 C.ar      1 <0>        -0.1392
      6 C6          0.0021   -0.0041    0.0020 C.ar      1 <0>        -0.1108
      7 C7          3.7112   -0.7071   -0.0376 C.3       1 <0>        -0.0942
      8 C8          4.1714   -0.9633    1.3989 C.3       1 <0>         0.1202
      9 C9          5.5738   -1.5740    1.3784 C.3       1 <0>        -0.1459
     10 C10         5.9141   -2.0552    2.7952 C.3       1 <0>        -0.1316
     11 C11         4.9721   -3.2102    3.1465 C.3       1 <0>        -0.1216
     12 C12         3.5574   -2.8357    2.8123 C.cat     1 <0>         0.5351
     13 N1          3.2314   -1.8650    2.0513 N.pl3     1 <0>        -0.5977
     14 N2          2.5503   -3.5853    3.3606 N.pl3     1 <0>        -0.8050
     15 H1         -0.9591    1.9053    0.0259 H         1 <0>         0.1304
     16 H2          1.1563    3.1654    0.0076 H         1 <0>         0.1313
     17 H3          3.3051    1.9634   -0.0196 H         1 <0>         0.1290
     18 H4          1.2231   -1.7588   -0.0176 H         1 <0>         0.1167
     19 H5         -0.9258   -0.5567    0.0082 H         1 <0>         0.1287
     20 H6          3.5884   -1.6586   -0.5549 H         1 <0>         0.0909
     21 H7          4.4573   -0.1052   -0.5563 H         1 <0>         0.1148
     22 H8          4.1990   -0.0184    1.9416 H         1 <0>         0.1218
     23 H9          5.5965   -2.4179    0.6889 H         1 <0>         0.0914
     24 H10         6.2969   -0.8220    1.0627 H         1 <0>         0.1153
     25 H11         6.9474   -2.4003    2.8281 H         1 <0>         0.1108
     26 H12         5.7755   -1.2389    3.5041 H         1 <0>         0.0880
     27 H13         5.2564   -4.0952    2.5772 H         1 <0>         0.1384
     28 H14         5.0471   -3.4272    4.2120 H         1 <0>         0.1337
     29 H15         2.7629   -4.3307    3.9438 H         1 <0>         0.4424
     30 H16         1.6247   -3.3708    3.1656 H         1 <0>         0.4235
     31 H17         2.2857   -1.7159    1.8954 H         1 <0>         0.4216
@<TRIPOS>BOND
     1    1    6 ar
     2    1    2 ar
     3    1   15 1
     4    2    3 ar
     5    2   16 1
     6    3    4 ar
     7    3   17 1
     8    4    5 ar
     9    4    7 1
    10    5    6 ar
    11    5   18 1
    12    6   19 1
    13    7    8 1
    14    7   20 1
    15    7   21 1
    16    8   13 1
    17    8    9 1
    18    8   22 1
    19    9   10 1
    20    9   23 1
    21    9   24 1
    22   10   11 1
    23   10   25 1
    24   10   26 1
    25   11   12 1
    26   11   27 1
    27   11   28 1
    28   12   13 2
    29   12   14 1
    30   13   31 1
    31   14   29 1
    32   14   30 1
